! wB97X-D3 def2-TZVPP TightSCF

%maxcore 5000

%pal
nprocs 25
end

* xyz 0 1
O           1.34496788859366      1.75069885466308      2.40702249806264
  O          -3.83901441510234     -1.86676660386118      2.30762702803128
  C           1.14529231719456      0.17371232006510      0.55408125001929
  C          -0.16734688639036     -0.35965793291767      1.00196576200930
  C          -2.52287178510106     -0.83927483282851      0.53794027948910
  C          -1.27811330505612     -0.34229238771154      0.15590777424053
  C           2.98970761448858      0.09862024405689     -1.05572603976977
  C           1.73942983793797     -0.32227449143218     -0.60910879024859
  C           1.83069626453014      1.16676267996399      1.28023978538953
  C          -0.32594039013145     -0.92181984485015      2.27203739045479
  C          -2.64405649317418     -1.39538106195035      1.81910099019806
  C          -3.71642438866418     -0.73675943135978     -0.39048358667443
  C           3.59912306043680     -0.48175107568266     -2.31815953429996
  C           3.65749240166735      1.05993218084205     -0.29888278519050
  C          -1.54659280160692     -1.44252516624940      2.67210999980160
  C           3.08602375583246      1.59055512516383      0.84794651006263
  C          -4.33827660899424     -2.06458544632927     -0.73696059872850
  C           2.83446842230420     -0.13166034107874     -3.56515845410646
  C          -5.62065119108987     -2.37689177193375     -0.56976564224834
  C           2.32963979688408     -1.00778810664010     -4.42588794303274
  H          -1.17811972732385      0.10364385858921     -0.82718084379526
  H           1.20878632100675     -1.08485132173382     -1.16876381029321
  H           0.51738799274063     -0.96171015627124      2.94959119457459
  H          -4.48043322545102     -0.08374173739684      0.04575202596461
  H          -3.38567488371266     -0.25225346225142     -1.31357046121940
  H           3.67393093022311     -1.57068459512642     -2.23769467511994
  H           4.62300800458562     -0.10447107007285     -2.41174397936231
  H           4.63667963911336      1.40562635649395     -0.61140985623122
  H          -1.66446050387317     -1.89477903300604      3.64868017472176
  H           3.59353235437962      2.35438565372748      1.42316789387475
  H          -3.66086338233750     -2.80870970085490     -1.14845052141067
  H           2.69423145714546      0.93148120350400     -3.74577160746817
  H           0.37785930424791      1.68522036589231      2.47946439455509
  H          -4.41705290211599     -2.12053730813499      1.57277257363767
  H          -6.00876310484904     -3.34949055013509     -0.84482442151664
  H          -6.33295355299319     -1.66139453807254     -0.17076048126205
  H           1.78961424192467     -0.68999797172210     -5.30928849507698
  H           2.44190240214838     -2.07705114319323     -4.27994368596348
  H          -5.08293850615530      2.56523437523358      4.45489581667578
  H          -3.98120718579020      1.01959303686254      5.95562888528330
  C          -4.65466002447609      1.68897518579692      3.96512830811190
  O          -2.45581761374000      1.30769875837994      4.60075685383618
  C          -2.45660134196339      1.95297973383560      3.41618088037013
  C          -3.78506846750133      0.84624943489178      4.89987084283297
  O          -3.71927391993103      2.13415654885396      2.96902383411807
  O          -1.48007640367243      2.32450247705526      2.84009061869126
  H          -5.43960548190863      1.11812323047032      3.47443723226301
  H          -3.84258466187964     -0.21896853734502      4.67452110614864
*
