58
Coordinates from ORCA-job honokiol2-opt_EC2 E -1531.731819292118
  O       1.467314      1.977229      2.207143
  O      -3.955059     -1.256210      2.078415
  C       1.229850      0.312659      0.433924
  C      -0.132756     -0.107221      0.852445
  C      -2.505581     -0.410464      0.312066
  C      -1.210024     -0.029390     -0.033881
  C       3.113779      0.054778     -1.111027
  C       1.832195     -0.278529     -0.680093
  C       1.948100      1.302978      1.130149
  C      -0.377589     -0.622136      2.128858
  C      -2.715152     -0.906707      1.608281
  C      -3.644074     -0.237473     -0.675597
  C       3.739519     -0.638596     -2.308387
  C       3.804234      1.030494     -0.392475
  C      -1.650661     -1.027240      2.496978
  C       3.230751      1.648643      0.708522
  C      -4.474801     -1.472999     -0.898926
  C       2.968066     -0.451002     -3.585961
  C      -5.798751     -1.526441     -0.778160
  C       2.492288     -1.431295     -4.344726
  H      -1.037655      0.367105     -1.028144
  H       1.277928     -1.043144     -1.214074
  H       0.437832     -0.723271      2.834080
  H      -4.296905      0.584683     -0.367752
  H      -3.207834      0.062188     -1.631597
  H       3.849839     -1.710219     -2.110403
  H       4.751537     -0.242110     -2.443643
  H       4.806293      1.312550     -0.696281
  H      -1.837463     -1.441811      3.478817
  H       3.761236      2.415767      1.258141
  H      -3.928948     -2.371366     -1.177804
  H       2.797417      0.580721     -3.883456
  H       0.530308      1.798029      2.379346
  H      -4.567176     -1.388803      1.337214
  H      -6.347217     -2.441571     -0.962399
  H      -6.378217     -0.649734     -0.509332
  H       1.946868     -1.229573     -5.258806
  H       2.635738     -2.473407     -4.081568
  H      -5.191651      2.715839      4.298618
  H      -4.225596      1.172677      5.877827
  C      -4.587080      1.936956      3.836546
  O      -2.510173      1.352698      4.753999
  C      -2.309034      2.194107      3.727422
  C      -3.905492      1.004956      4.851068
  O      -3.478476      2.564671      3.166602
  O      -1.241727      2.584065      3.354937
  H      -5.173341      1.406103      3.090075
  H      -4.015974     -0.046484      4.588856
  O      -5.776613      2.589470      0.479950
  C      -4.925090      3.421911      0.573039
  O      -3.760162      3.404615     -0.104802
  O      -5.002172      4.507453      1.370756
  C      -2.880124      4.425240      0.399659
  C      -3.811673      5.303047      1.243880
  H      -2.102432      3.946644      0.992342
  H      -4.078437      6.241533      0.758588
  H      -2.440423      4.947970     -0.446008
  H      -3.418776      5.499074      2.238683
58
Coordinates from ORCA-job honokiol2-opt_EC2 E -1531.731886717418
  O       1.464017      1.962306      2.225569
  O      -3.963041     -1.256491      2.088870
  C       1.223521      0.307514      0.444124
  C      -0.139581     -0.111820      0.862517
  C      -2.511872     -0.418443      0.321483
  C      -1.217007     -0.034438     -0.023794
  C       3.104037      0.058368     -1.106216
  C       1.822552     -0.275942     -0.675570
  C       1.944995      1.290960      1.146335
  C      -0.384871     -0.625134      2.139465
  C      -2.722007     -0.911202      1.618461
  C      -3.651263     -0.247871     -0.665027
  C       3.723504     -0.622374     -2.313014
  C       3.799307      1.024047     -0.379454
  C      -1.658479     -1.028269      2.508459
  C       3.229258      1.634479      0.727199
  C      -4.465205     -1.492868     -0.903940
  C       2.949347     -0.415111     -3.585337
  C      -5.788331     -1.567358     -0.781375
  C       2.465279     -1.383606     -4.353974
  H      -1.044745      0.360807     -1.018530
  H       1.264809     -1.032881     -1.215914
  H       0.430093     -0.723957      2.845695
  H      -4.315416      0.561012     -0.345001
  H      -3.218401      0.071352     -1.617748
  H       3.829070     -1.696375     -2.128846
  H       4.736889     -0.228890     -2.445900
  H       4.801391      1.306394     -0.682821
  H      -1.846180     -1.438098      3.492546
  H       3.762397      2.396260      1.281640
  H      -3.907623     -2.378622     -1.199870
  H       2.784274      0.621341     -3.870301
  H       0.524783      1.789071      2.391236
  H      -4.574396     -1.390083      1.347529
  H      -6.324344     -2.486910     -0.981587
  H      -6.379624     -0.703054     -0.496799
  H       1.918384     -1.167862     -5.263569
  H       2.602335     -2.430148     -4.102851
  H      -5.180471      2.736043      4.293914
  H      -4.228232      1.190532      5.877538
  C      -4.582429      1.950275      3.834141
  O      -2.510328      1.358316      4.755554
  C      -2.302317      2.193191      3.724707
  C      -3.907405      1.017745      4.852029
  O      -3.468748      2.566901      3.160102
  O      -1.232568      2.576223      3.352231
  H      -5.175771      1.420189      3.093225
  H      -4.022371     -0.033661      4.593593
  O      -5.765262      2.596301      0.469532
  C      -4.906670      3.421783      0.558425
  O      -3.740429      3.389748     -0.117273
  O      -4.976591      4.513958      1.348407
  C      -2.853350      4.407939      0.380660
  C      -3.779980      5.299811      1.217128
  H      -2.079036      3.928955      0.978483
  H      -4.038862      6.237243      0.723666
  H      -2.408741      4.921166     -0.469409
  H      -3.387516      5.500891      2.211590
