! B3LYP def2-TZVP TightSCF

%maxcore 5000

%pal
nprocs 20
end

* xyz 0 1
O           0.66580672284353     -0.45075943218760      0.00007662235310
  O          -1.47265268743114     -0.77916767228170      0.00003889522228
  O          -0.70737712073084      1.35242998679934     -0.00105651684733
  C           1.82118850438721      0.41970651042198     -0.00021897916842
  C           3.05153742747630     -0.45823037581205     -0.00020423052285
  C          -0.52082132673025      0.16180663131959     -0.00039344869800
  C          -2.82036388654811     -0.28455358490689     -0.00039762428973
  H           1.77590000830035      1.06033192646663     -0.88244061653073
  H           1.77615087651848      1.06059256258111      0.88183310405866
  H           3.94631972342973      0.16731773853903      0.00021167200116
  H           3.07753579455193     -1.09566193066220      0.88470933430767
  H           3.07798525278333     -1.09528353878009     -0.88536774082887
  H          -3.00724588270878      0.31892384142160      0.88745800698419
  H          -3.45176253692118     -1.16899808983519      0.00013615881637
  H          -3.00710086922054      0.31774542691643     -0.88908463685750
*
