58
Coordinates from ORCA-job honokiol2-opt_EC2_closer E -1531.733016168065
  O       0.676720      2.086753      1.111064
  O      -3.653004     -2.500752      1.251384
  C       1.276540     -0.005038      0.011160
  C      -0.018786     -0.661088      0.339307
  C      -2.447312     -0.771055      0.041040
  C      -1.210143     -0.182351     -0.211223
  C       3.453934     -0.115084     -1.103837
  C       2.251579     -0.699397     -0.707648
  C       1.545605      1.326330      0.374073
  C      -0.087607     -1.782108      1.168296
  C      -2.479218     -1.886611      0.891936
  C      -3.711978     -0.206875     -0.575669
  C       4.479273     -0.910088     -1.890672
  C       3.671130      1.218609     -0.765186
  C      -1.304625     -2.388385      1.442455
  C       2.732279      1.929342     -0.029725
  C      -4.484918     -1.204948     -1.398399
  C       3.993552     -1.335841     -3.249051
  C      -5.775701     -1.488125     -1.243110
  C       3.940611     -2.588911     -3.684522
  H      -1.175037      0.682051     -0.863923
  H       2.043611     -1.724976     -0.991782
  H       0.817368     -2.173982      1.615593
  H      -4.365537      0.215300      0.193970
  H      -3.428675      0.633106     -1.214825
  H       4.783061     -1.796273     -1.324956
  H       5.376158     -0.293105     -2.009991
  H       4.592447      1.706457     -1.063297
  H      -1.363902     -3.252229      2.092065
  H       2.915686      2.954825      0.265274
  H      -3.918979     -1.721447     -2.170126
  H       3.660064     -0.532060     -3.901149
  H       0.205054      1.548493      1.771630
  H      -4.335853     -2.315616      0.588587
  H      -6.278069     -2.210414     -1.874357
  H      -6.380109     -0.987413     -0.493467
  H       3.581460     -2.830625     -4.677190
  H       4.256669     -3.420305     -3.063282
  H      -4.231682      1.584167      4.952624
  H      -3.923769     -0.781234      5.363425
  C      -4.018722      0.993848      4.060496
  O      -2.161722     -0.366765      4.373607
  C      -1.777350      0.736580      3.712749
  C      -3.603949     -0.442026      4.380927
  O      -2.830901      1.532515      3.441332
  O      -0.648273      0.995241      3.410108
  H      -4.839689      1.082746      3.355030
  H      -3.911440     -1.157299      3.617325
  O      -5.050170      2.666258      1.349229
  C      -4.042547      3.305219      1.291749
  O      -3.086677      3.143740      0.354781
  O      -3.708229      4.289597      2.153407
  C      -2.049332      4.129397      0.530600
  C      -2.340754      4.679386      1.928114
  H      -1.083442      3.634830      0.454229
  H      -2.156676      4.881992     -0.252459
  H      -2.275124      5.763142      1.995775
  H      -1.719611      4.217806      2.696096
58
Coordinates from ORCA-job honokiol2-opt_EC2_closer E -1531.733020409376
  O       0.679249      2.087803      1.121148
  O      -3.651656     -2.489728      1.270110
  C       1.277632     -0.000522      0.016066
  C      -0.017714     -0.655814      0.346243
  C      -2.446926     -0.763666      0.053844
  C      -1.209648     -0.176670     -0.202408
  C       3.454381     -0.110253     -1.099490
  C       2.251145     -0.694126     -0.705450
  C       1.548543      1.329252      0.383177
  C      -0.085582     -1.775728      1.176735
  C      -2.478034     -1.877906      0.906415
  C      -3.712885     -0.199218     -0.560394
  C       4.478460     -0.903672     -1.889605
  C       3.674199      1.221712     -0.755344
  C      -1.302610     -2.380415      1.454600
  C       2.736691      1.931649     -0.017375
  C      -4.489598     -1.197757     -1.378820
  C       3.992229     -1.322119     -3.250074
  C      -5.780485     -1.478162     -1.219342
  C       3.936608     -2.573106     -3.691196
  H      -1.175220      0.687130     -0.855866
  H       2.041680     -1.718562     -0.992592
  H       0.820051     -2.167970      1.622359
  H      -4.363647      0.225481      0.210417
  H      -3.430139      0.638863     -1.202319
  H       4.780546     -1.793131     -1.328140
  H       5.376453     -0.287751     -2.005949
  H       4.596819      1.708663     -1.050905
  H      -1.361188     -3.243070      2.105851
  H       2.921896      2.955603      0.281696
  H      -3.926651     -1.716738     -2.151063
  H       3.660703     -0.514697     -3.898655
  H       0.204324      1.546389      1.776990
  H      -4.335932     -2.305778      0.608472
  H      -6.285970     -2.200578     -1.847969
  H      -6.381838     -0.975079     -0.468850
  H       3.577272     -2.809658     -4.685043
  H       4.250572     -3.407958     -3.073529
  H      -4.244528      1.561558      4.943459
  H      -3.934238     -0.805827      5.341496
  C      -4.027118      0.976637      4.048490
  O      -2.169680     -0.384598      4.359612
  C      -1.784231      0.722818      3.706077
  C      -3.611773     -0.460743      4.361921
  O      -2.837681      1.519368      3.436550
  O      -0.654426      0.983563      3.408081
  H      -4.845234      1.068259      3.339347
  H      -3.916074     -1.172024      3.593284
  O      -5.065875      2.697724      1.352513
  C      -4.047323      3.318629      1.283165
  O      -3.103126      3.136987      0.337754
  O      -3.686410      4.297966      2.139881
  C      -2.046791      4.104600      0.501340
  C      -2.314175      4.662245      1.900397
  H      -1.090561      3.592913      0.416826
  H      -2.149015      4.857295     -0.282290
  H      -2.228169      5.744732      1.965081
  H      -1.694015      4.190492      2.662859
58
Coordinates from ORCA-job honokiol2-opt_EC2_closer E -1531.733030997631
  O       0.672834      2.084417      1.112216
  O      -3.653705     -2.498819      1.255847
  C       1.275561     -0.004708      0.011523
  C      -0.020222     -0.660140      0.340405
  C      -2.448229     -0.772582      0.040880
  C      -1.211060     -0.184098     -0.213007
  C       3.453550     -0.113741     -1.100999
  C       2.250213     -0.698244     -0.708434
  C       1.544719      1.325746      0.377736
  C      -0.088572     -1.778506      1.172859
  C      -2.479976     -1.885573      0.894931
  C      -3.713780     -0.211598     -0.577865
  C       4.479339     -0.906483     -1.889620
  C       3.672096      1.218587     -0.757245
  C      -1.305389     -2.385063      1.447764
  C       2.733092      1.928785     -0.021442
  C      -4.486083     -1.212468     -1.397442
  C       3.995497     -1.324385     -3.251118
  C      -5.777104     -1.494430     -1.241738
  C       3.940564     -2.575253     -3.692697
  H      -1.175991      0.678130     -0.868436
  H       2.041753     -1.722986     -0.995213
  H       0.816450     -2.168811      1.621371
  H      -4.367750      0.212643      0.190659
  H      -3.430708      0.626234     -1.219985
  H       4.780969     -1.796191     -1.328322
  H       5.377175     -0.290039     -2.004264
  H       4.595174      1.705606     -1.051272
  H      -1.364365     -3.246602      2.100439
  H       2.917160      2.953037      0.277226
  H      -3.919816     -1.731396     -2.167274
  H       3.665129     -0.516787     -3.900063
  H       0.200149      1.544681      1.771324
  H      -4.335833     -2.318923      0.590856
  H      -6.279588     -2.218028     -1.871423
  H      -6.381560     -0.991517     -0.493652
  H       3.583031     -2.811633     -4.687236
  H       4.253369     -3.410257     -3.074634
  H      -4.237489      1.581149      4.959534
  H      -3.924730     -0.783605      5.369966
  C      -4.023702      0.991140      4.066760
  O      -2.165631     -0.370546      4.375477
  C      -1.782627      0.733025      3.713843
  C      -3.607686     -0.444828      4.386418
  O      -2.836761      1.529214      3.446411
  O      -0.654035      0.990324      3.408324
  H      -4.844473      1.078572      3.359699
  H      -3.916907     -1.160555      3.623924
  O      -5.065662      2.704436      1.359738
  C      -4.047821      3.327349      1.293010
  O      -3.100466      3.147382      0.350021
  O      -3.690274      4.305972      2.151936
  C      -2.046839      4.117770      0.516965
  C      -2.318041      4.673102      1.915902
  H      -1.088971      3.608911      0.434596
  H      -2.149845      4.870850     -0.266180
  H      -2.234318      5.755664      1.981803
  H      -1.698523      4.201372      2.678788
