48
Coordinates from ORCA-job honokiol2-opt_EC_closer E -1189.348523836836
  O       1.103497      1.439134      2.399821
  O      -3.839448     -2.509595      1.803299
  C       1.052057     -0.005708      0.428463
  C      -0.238030     -0.651835      0.782514
  C      -2.523883     -1.279608      0.167541
  C      -1.305297     -0.666879     -0.118264
  C       2.946808      0.151557     -1.118128
  C       1.712662     -0.375570     -0.746698
  C       1.652347      0.968581      1.249106
  C      -0.413970     -1.299710      2.009007
  C      -2.662603     -1.919826      1.406684
  C      -3.673661     -1.214315     -0.818098
  C       3.633321     -0.299107     -2.394168
  C       3.529295      1.092556     -0.270417
  C      -1.607881     -1.934423      2.313354
  C       2.890694      1.498994      0.891199
  C      -4.166521     -2.564857     -1.269920
  C       2.861416      0.036637     -3.640274
  C      -5.426068     -2.985762     -1.189668
  C       2.457922     -0.840875     -4.551626
  H      -1.192864     -0.157461     -1.068697
  H       1.248156     -1.124570     -1.378499
  H       0.396030     -1.316453      2.726796
  H      -4.510085     -0.651426     -0.389047
  H      -3.336998     -0.650251     -1.692434
  H       3.816485     -1.377963     -2.365860
  H       4.615672      0.182310     -2.443987
  H       4.493115      1.520526     -0.522968
  H      -1.737414     -2.452571      3.254985
  H       3.330942      2.247431      1.537642
  H      -3.410595     -3.228447     -1.682084
  H       2.624215      1.089307     -3.775400
  H       0.141640      1.315127      2.447827
  H      -4.357252     -2.763616      1.024881
  H      -5.718608     -3.968831     -1.536471
  H      -6.213720     -2.352430     -0.793511
  H       1.906626     -0.533340     -5.431696
  H       2.668871     -1.900547     -4.452446
  H      -5.570090      1.461308      4.074429
  H      -4.589079     -0.087660      5.646530
  C      -4.968628      0.676479      3.612865
  O      -2.882992      0.400051      4.600144
  C      -2.740346      1.158140      3.493098
  C      -4.202673     -0.170291      4.632862
  O      -3.920423      1.295122      2.849568
  O      -1.715062      1.649927      3.133828
  H      -5.583684      0.083419      2.940019
  H      -4.136923     -1.217932      4.339157
48
Coordinates from ORCA-job honokiol2-opt_EC_closer E -1189.348531383187
  O       1.098077      1.444977      2.394021
  O      -3.842425     -2.501485      1.804379
  C       1.051587     -0.004268      0.426306
  C      -0.238371     -0.650586      0.780544
  C      -2.525086     -1.276268      0.166725
  C      -1.305789     -0.665452     -0.120163
  C       2.948451      0.151406     -1.117771
  C       1.714239     -0.376095     -0.747083
  C       1.649710      0.972393      1.245593
  C      -0.414793     -1.297036      2.007656
  C      -2.664464     -1.914709      1.406736
  C      -3.675408     -1.209894     -0.818133
  C       3.637159     -0.301322     -2.391896
  C       3.528909      1.094664     -0.271148
  C      -1.609420     -1.930043      2.312900
  C       2.888226      1.503085      0.888611
  C      -4.172041     -2.559399     -1.268407
  C       2.867630      0.032919     -3.639889
  C      -5.432493     -2.977354     -1.187205
  C       2.465617     -0.845741     -4.550782
  H      -1.193053     -0.156909     -1.070995
  H       1.251480     -1.126989     -1.377909
  H       0.395293     -1.314286      2.725331
  H      -4.509951     -0.643887     -0.389513
  H      -3.337785     -0.648265     -1.693730
  H       3.819788     -1.380204     -2.361685
  H       4.619771      0.179670     -2.440587
  H       4.492770      1.522855     -0.523183
  H      -1.739007     -2.447173      3.255123
  H       3.326790      2.253255      1.534182
  H      -3.417949     -3.225035     -1.680705
  H       2.630915      1.085455     -3.776891
  H       0.136806      1.316270      2.441118
  H      -4.360536     -2.756103      1.026319
  H      -5.727866     -3.959733     -1.533523
  H      -6.218316     -2.341887     -0.790789
  H       1.916001     -0.539262     -5.432272
  H       2.676126     -1.905327     -4.449813
  H      -5.574636      1.444020      4.069739
  H      -4.582668     -0.088125      5.652347
  C      -4.968142      0.659824      3.613664
  O      -2.880257      0.403597      4.601757
  C      -2.742927      1.154568      3.489198
  C      -4.196282     -0.174898      4.639061
  O      -3.924222      1.279693      2.845477
  O      -1.720856      1.649640      3.125312
  H      -5.579715      0.058088      2.945358
  H      -4.123914     -1.223898      4.351871
48
Coordinates from ORCA-job honokiol2-opt_EC_closer E -1189.348540152515
  O       1.064692      1.465970      2.362328
  O      -3.833129     -2.513844      1.807511
  C       1.050665     -0.005851      0.412915
  C      -0.233290     -0.662993      0.769433
  C      -2.525409     -1.281417      0.169384
  C      -1.308089     -0.669573     -0.123398
  C       2.958160      0.151854     -1.117307
  C       1.724962     -0.382000     -0.752449
  C       1.634303      0.982902      1.227802
  C      -0.399032     -1.322396      1.990588
  C      -2.655193     -1.930794      1.404966
  C      -3.687075     -1.199764     -0.800241
  C       3.659227     -0.305268     -2.383096
  C       3.526112      1.104503     -0.272595
  C      -1.591322     -1.958774      2.299475
  C       2.873434      1.517898      0.878562
  C      -4.204334     -2.537838     -1.257588
  C       2.904448      0.030232     -3.639851
  C      -5.467444     -2.945350     -1.166910
  C       2.510021     -0.848096     -4.554332
  H      -1.203284     -0.151555     -1.069796
  H       1.273974     -1.142585     -1.380173
  H       0.417607     -1.351123      2.700505
  H      -4.508622     -0.624249     -0.359408
  H      -3.353162     -0.639226     -1.678443
  H       3.836613     -1.384825     -2.349240
  H       4.644152      0.171880     -2.421558
  H       4.489499      1.536472     -0.520113
  H      -1.709448     -2.487482      3.237017
  H       3.301086      2.276157      1.521973
  H      -3.461782     -3.205568     -1.687628
  H       2.672160      1.083284     -3.780352
  H       0.106693      1.312435      2.402649
  H      -4.356312     -2.763674      1.031040
  H      -5.778707     -3.918935     -1.523701
  H      -6.241604     -2.307107     -0.752107
  H       1.970846     -0.540721     -5.441950
  H       2.716329     -1.908209     -4.450496
  H      -5.602735      1.413592      4.062165
  H      -4.568702     -0.065065      5.675375
  C      -4.981634      0.631053      3.622819
  O      -2.882760      0.437953      4.603046
  C      -2.766350      1.163691      3.471449
  C      -4.187405     -0.164469      4.661625
  O      -3.954234      1.252639      2.833812
  O      -1.755871      1.666393      3.086157
  H      -5.584677      0.001287      2.972930
  H      -4.096407     -1.216697      4.392466
48
Coordinates from ORCA-job honokiol2-opt_EC_closer E -1189.348564462538
  O       1.068238      1.472090      2.363536
  O      -3.845809     -2.492729      1.801086
  C       1.048716     -0.000724      0.414710
  C      -0.239497     -0.650207      0.770215
  C      -2.528662     -1.271068      0.161779
  C      -1.309440     -0.661871     -0.128121
  C       2.956004      0.149107     -1.116351
  C       1.722161     -0.381905     -0.749367
  C       1.634487      0.988797      1.227190
  C      -0.413068     -1.299197      1.995897
  C      -2.666177     -1.910846      1.401598
  C      -3.683143     -1.199065     -0.817285
  C       3.655721     -0.312053     -2.381428
  C       3.525065      1.104307     -0.275240
  C      -1.608186     -1.931045      2.303505
  C       2.873561      1.521943      0.875105
  C      -4.194958     -2.542854     -1.265139
  C       2.900621      0.021470     -3.638502
  C      -5.458140     -2.951149     -1.178697
  C       2.504452     -0.858493     -4.550678
  H      -1.197980     -0.152728     -1.078695
  H       1.268528     -1.142136     -1.375706
  H       0.399246     -1.321688      2.711071
  H      -4.508888     -0.621505     -0.387136
  H      -3.343984     -0.645313     -1.697657
  H       3.831839     -1.391765     -2.345140
  H       4.641256      0.163696     -2.421670
  H       4.488855      1.534341     -0.524505
  H      -1.733036     -2.451175      3.244846
  H       3.303052      2.280942      1.516448
  H      -3.448597     -3.213766     -1.683355
  H       2.669595      1.074491     -3.781297
  H       0.111068      1.314987      2.409186
  H      -4.364443     -2.748080      1.023487
  H      -5.765119     -3.929200     -1.526952
  H      -6.236046     -2.309999     -0.775646
  H       1.965078     -0.552531     -5.438658
  H       2.709448     -1.918635     -4.444414
  H      -5.592431      1.401124      4.086595
  H      -4.554039     -0.093670      5.680734
  C      -4.974082      0.622583      3.636600
  O      -2.871893      0.418258      4.607098
  C      -2.759164      1.155537      3.482579
  C      -4.176587     -0.183930      4.664584
  O      -3.949322      1.251579      2.850115
  O      -1.749973      1.663045      3.100254
  H      -5.579912     -0.000276      2.982631
  H      -4.087442     -1.233948      4.386045
48
Coordinates from ORCA-job honokiol2-opt_EC_closer E -1189.348575357266
  O       1.070060      1.473520      2.363943
  O      -3.846267     -2.492272      1.801496
  C       1.048781     -0.000716      0.415922
  C      -0.240627     -0.647986      0.771541
  C      -2.529082     -1.270123      0.161882
  C      -1.309972     -0.660509     -0.127318
  C       2.954961      0.147305     -1.116462
  C       1.721334     -0.383300     -0.748068
  C       1.635294      0.989204      1.227456
  C      -0.415031     -1.295379      1.997945
  C      -2.667199     -1.909092      1.402190
  C      -3.682093     -1.200621     -0.819340
  C       3.653784     -0.314779     -2.381683
  C       3.524038      1.104093     -0.277203
  C      -1.610223     -1.927155      2.305461
  C       2.873437      1.522912      0.873222
  C      -4.189571     -2.546437     -1.267048
  C       2.899050      0.020556     -3.638495
  C      -5.451914     -2.957661     -1.181946
  C       2.501421     -0.858311     -4.551099
  H      -1.197671     -0.152497     -1.078463
  H       1.266738     -1.143668     -1.373560
  H       0.396551     -1.315904      2.713985
  H      -4.510180     -0.625633     -0.390206
  H      -3.343211     -0.645612     -1.698916
  H       3.828101     -1.394797     -2.345851
  H       4.640132      0.159271     -2.421950
  H       4.487402      1.534244     -0.527824
  H      -1.736137     -2.445546      3.247530
  H       3.303352      2.282811      1.513211
  H      -3.440945     -3.215838     -1.683541
  H       2.669594      1.074003     -3.780666
  H       0.113744      1.312697      2.413059
  H      -4.365260     -2.747239      1.024020
  H      -5.755559     -3.937145     -1.529161
  H      -6.232066     -2.318101     -0.780774
  H       1.962399     -0.551072     -5.438849
  H       2.704858     -1.918814     -4.445405
  H      -5.586738      1.409115      4.104896
  H      -4.551869     -0.112724      5.674555
  C      -4.974316      0.633696      3.641744
  O      -2.870369      0.404408      4.602743
  C      -2.757189      1.157595      3.488774
  C      -4.178076     -0.191449      4.656015
  O      -3.948678      1.268481      2.861164
  O      -1.746679      1.666323      3.111626
  H      -5.585341      0.023244      2.980872
  H      -4.095793     -1.238350      4.363831
48
Coordinates from ORCA-job honokiol2-opt_EC_closer E -1189.348592295119
  O       1.060411      1.483612      2.352466
  O      -3.849675     -2.488772      1.797056
  C       1.047221     -0.000533      0.412010
  C      -0.243750     -0.645454      0.766928
  C      -2.532027     -1.267098      0.156553
  C      -1.312377     -0.658714     -0.132577
  C       2.956525      0.142742     -1.116289
  C       1.722944     -0.388308     -0.748125
  C       1.629951      0.994200      1.220416
  C      -0.419508     -1.290277      1.994474
  C      -2.671162     -1.904529      1.397728
  C      -3.683641     -1.199678     -0.826735
  C       3.658839     -0.323482     -2.377986
  C       3.521127      1.105681     -0.281050
  C      -1.615264     -1.920880      2.302351
  C       2.867253      1.529376      0.865755
  C      -4.188902     -2.547749     -1.271346
  C       2.911747      0.016620     -3.638143
  C      -5.451036     -2.959638     -1.186176
  C       2.513898     -0.859545     -4.553261
  H      -1.198716     -0.152277     -1.084467
  H       1.270404     -1.152053     -1.371024
  H       0.391336     -1.308989      2.711444
  H      -4.513089     -0.625481     -0.399127
  H      -3.344604     -0.645261     -1.706454
  H       3.826698     -1.404473     -2.341661
  H       4.648093      0.144852     -2.413660
  H       4.484038      1.536702     -0.531898
  H      -1.742624     -2.436515      3.245599
  H       3.294315      2.293650      1.502438
  H      -3.439164     -3.217713     -1.684751
  H       2.688281      1.071322     -3.780520
  H       0.107513      1.305803      2.407242
  H      -4.369730     -2.742479      1.019948
  H      -5.752904     -3.940944     -1.529825
  H      -6.232326     -2.319430     -0.788323
  H       1.980527     -0.548946     -5.443249
  H       2.711503     -1.921142     -4.447410
  H      -5.585742      1.404574      4.139959
  H      -4.535733     -0.129601      5.686225
  C      -4.977045      0.634187      3.663855
  O      -2.864455      0.397837      4.603925
  C      -2.761993      1.162814      3.496772
  C      -4.171106     -0.199559      4.663602
  O      -3.959130      1.277684      2.880461
  O      -1.755738      1.677826      3.116787
  H      -5.593006      0.029012      3.002634
  H      -4.091200     -1.244227      4.362686
