58
Coordinates from ORCA-job honokiol2-opt_FEC2 E -1730.246043057174
  O       1.661257      1.864626      2.158405
  O      -3.640726     -1.528693      2.041513
  C       1.479984      0.212350      0.365993
  C       0.134151     -0.260815      0.791139
  C      -2.259668     -0.478831      0.336827
  C      -0.979288     -0.069503     -0.030468
  C       3.356241      0.051121     -1.200278
  C       2.091863     -0.336889     -0.763573
  C       2.168237      1.214556      1.072055
  C      -0.054084     -0.913558      2.011652
  C      -2.411553     -1.131222      1.568323
  C      -3.448819     -0.172588     -0.552097
  C       3.993120     -0.593567     -2.417691
  C       4.020794      1.034288     -0.468361
  C      -1.313071     -1.356954      2.390435
  C       3.437634      1.610437      0.650772
  C      -4.211072     -1.394417     -0.992804
  C       3.154833     -0.493476     -3.661978
  C      -5.514788     -1.591611     -0.814059
  C       2.749462     -1.523704     -4.394668
  H      -0.858870      0.446241     -0.975922
  H       1.557606     -1.104352     -1.312032
  H       0.792565     -1.090450      2.663488
  H      -4.131237      0.515732     -0.041191
  H      -3.078083      0.358270     -1.432468
  H       4.209966     -1.647621     -2.215769
  H       4.958398     -0.108406     -2.597545
  H       5.010778      1.354210     -0.773985
  H      -1.457395     -1.884556      3.324593
  H       3.952892      2.376911      1.216547
  H      -3.623067     -2.162705     -1.488796
  H       2.868468      0.513197     -3.956575
  H       0.739257      1.629798      2.346950
  H      -4.251090     -1.652604      1.298140
  H      -6.005816     -2.491359     -1.162836
  H      -6.142674     -0.846204     -0.335785
  H       2.149375     -1.385517     -5.285453
  H       3.006062     -2.544525     -4.131352
  H      -4.992722      1.074172      3.425134
  H      -3.588905     -0.501012      4.621960
  O      -2.111226      0.929456      4.827415
  C      -3.481196      0.527296      4.965530
  C      -4.227619      1.507127      4.065139
  C      -1.987905      1.772492      3.789534
  O      -0.965374      2.208996      3.366133
  O      -3.218295      2.066604      3.268991
  F      -4.816190      2.505253      4.808581
  H      -3.780720      0.628227      6.006244
  H       1.172733      5.903923     -0.840461
  H       2.026375      4.346477     -0.597007
  C       1.057357      4.828233     -0.727891
  F      -0.699097      5.567242      0.708382
  C       0.082933      4.476768      0.392674
  H       0.528324      4.099329      1.309701
  O       0.423808      4.293143     -1.899374
  O      -0.729403      3.484543     -0.175605
  C      -0.567004      3.455292     -1.533454
  O      -1.203955      2.771897     -2.267121
58
Coordinates from ORCA-job honokiol2-opt_FEC2 E -1730.246066602268
  O       1.662496      1.864083      2.157779
  O      -3.640672     -1.523284      2.045164
  C       1.481128      0.212189      0.366954
  C       0.134584     -0.258416      0.792745
  C      -2.258938     -0.477573      0.338892
  C      -0.978797     -0.069176     -0.029269
  C       3.356774      0.051907     -1.200313
  C       2.092271     -0.336383     -0.763117
  C       2.169342      1.214624      1.072291
  C      -0.054146     -0.908460      2.014737
  C      -2.411536     -1.127430      1.571699
  C      -3.448749     -0.171836     -0.549310
  C       3.992627     -0.591300     -2.419016
  C       4.021692      1.034149     -0.467677
  C      -1.313061     -1.351067      2.394518
  C       3.438151      1.610395      0.651258
  C      -4.212560     -1.393904     -0.986454
  C       3.152633     -0.491518     -3.662126
  C      -5.516322     -1.589189     -0.805886
  C       2.747063     -1.521898     -4.394492
  H      -0.857718      0.445468     -0.974841
  H       1.556850     -1.102963     -1.311802
  H       0.792365     -1.083903      2.667216
  H      -4.129823      0.517654     -0.038482
  H      -3.079715      0.357665     -1.431394
  H       4.210894     -1.645247     -2.217959
  H       4.957011     -0.104757     -2.599897
  H       5.011376      1.354715     -0.773504
  H      -1.457463     -1.876582      3.329875
  H       3.953147      2.376689      1.217260
  H      -3.625782     -2.163934     -1.481190
  H       2.864945      0.514978     -3.956117
  H       0.740180      1.627484      2.345436
  H      -4.250157     -1.652020      1.301953
  H      -6.008748     -2.489270     -1.151795
  H      -6.142920     -0.841758     -0.329077
  H       2.145590     -1.383991     -5.284377
  H       3.005016     -2.542544     -4.131840
  H      -4.991421      1.067320      3.413915
  H      -3.587663     -0.505973      4.612439
  O      -2.113091      0.927271      4.822858
  C      -3.483140      0.522100      4.957254
  C      -4.228308      1.501249      4.055576
  C      -1.988903      1.770639      3.785177
  O      -0.965998      2.206861      3.363465
  O      -3.217967      2.063261      3.262554
  F      -4.820725      2.498186      4.797945
  H      -3.785283      0.621136      5.997312
  H       1.175590      5.901464     -0.840199
  H       2.029104      4.343782     -0.595343
  C       1.060257      4.825889     -0.727323
  F      -0.697581      5.564135      0.708706
  C       0.085416      4.474211      0.392848
  H       0.529844      4.096672      1.310118
  O       0.428091      4.290756     -1.899449
  O      -0.726795      3.482745     -0.176489
  C      -0.564489      3.454734     -1.534591
  O      -1.202402      2.773035     -2.268961
58
Coordinates from ORCA-job honokiol2-opt_FEC2 E -1730.246089226816
  O       1.662640      1.860081      2.156740
  O      -3.637943     -1.529414      2.042843
  C       1.482620      0.210173      0.365252
  C       0.135734     -0.259227      0.790799
  C      -2.257035     -0.482209      0.337357
  C      -0.977879     -0.073022     -0.031446
  C       3.358432      0.054513     -1.202651
  C       2.093538     -0.335137     -0.766113
  C       2.169869      1.212689      1.071758
  C      -0.052346     -0.910741      2.012292
  C      -2.409452     -1.133544      1.569638
  C      -3.448911     -0.176460     -0.548182
  C       3.993988     -0.585216     -2.423283
  C       4.022923      1.034632     -0.467304
  C      -1.310120     -1.356398      2.391794
  C       3.437941      1.609202      0.651937
  C      -4.214267     -1.398783     -0.981969
  C       3.151594     -0.486927     -3.664798
  C      -5.517760     -1.592920     -0.797943
  C       2.747155     -1.518056     -4.396738
  H      -0.855740      0.442261     -0.976092
  H       1.557189     -1.100313     -1.315981
  H       0.794388     -1.085480      2.664778
  H      -4.128105      0.513000     -0.035110
  H      -3.084521      0.353113     -1.432378
  H       4.215993     -1.638701     -2.223760
  H       4.956256     -0.094951     -2.605343
  H       5.012373      1.356770     -0.772153
  H      -1.453383     -1.882887      3.326792
  H       3.952194      2.374504      1.219754
  H      -3.629041     -2.169607     -1.477306
  H       2.860795      0.518911     -3.958052
  H       0.740254      1.620322      2.343972
  H      -4.246666     -1.663766      1.299927
  H      -6.011787     -2.493084     -1.141351
  H      -6.142647     -0.844267     -0.320836
  H       2.143715     -1.381337     -5.285462
  H       3.008299     -2.538108     -4.134947
  H      -4.996521      1.079393      3.412885
  H      -3.597893     -0.496782      4.611397
  O      -2.120327      0.933279      4.825740
  C      -3.492488      0.530582      4.957496
  C      -4.232646      1.511604      4.054672
  C      -1.993011      1.775569      3.787017
  O      -0.968117      2.206633      3.365923
  O      -3.219644      2.071346      3.263673
  F      -4.824121      2.510866      4.795535
  H      -3.795742      0.628711      5.997208
  H       1.181169      5.897540     -0.835827
  H       2.033280      4.338756     -0.589298
  C       1.065185      4.822070     -0.723419
  F      -0.695627      5.558726      0.711530
  C       0.088855      4.469550      0.395128
  H       0.530771      4.091565      1.313256
  O       0.435305      4.288789     -1.897375
  O      -0.723047      3.479735     -0.177306
  C      -0.561093      3.456194     -1.535980
  O      -1.201014      2.779329     -2.273038
58
Coordinates from ORCA-job honokiol2-opt_FEC2 E -1730.246104730651
  O       1.662102      1.857776      2.156016
  O      -3.637815     -1.519900      2.049279
  C       1.482977      0.210089      0.362808
  C       0.136293     -0.258890      0.789085
  C      -2.256874     -0.481802      0.338245
  C      -0.978102     -0.073851     -0.032472
  C       3.358457      0.056928     -1.205743
  C       2.093722     -0.333763     -0.769130
  C       2.170151      1.212155      1.070576
  C      -0.051326     -0.907510      2.012303
  C      -2.409262     -1.129000      1.572994
  C      -3.449750     -0.178410     -0.546854
  C       3.994009     -0.581806     -2.426894
  C       4.022613      1.036608     -0.469704
  C      -1.309138     -1.350544      2.394590
  C       3.437824      1.609561      0.650658
  C      -4.214050     -1.402086     -0.979153
  C       3.149547     -0.487048     -3.667238
  C      -5.517365     -1.597309     -0.794800
  C       2.746499     -1.520078     -4.397282
  H      -0.855814      0.441921     -0.976941
  H       1.557185     -1.098665     -1.319164
  H       0.795695     -1.080910      2.664795
  H      -4.129210      0.510754     -0.033631
  H      -3.087965      0.350792     -1.432335
  H       4.219502     -1.634472     -2.226944
  H       4.954442     -0.088607     -2.610748
  H       5.011947      1.359403     -0.774266
  H      -1.452016     -1.873617      3.331573
  H       3.952288      2.373911      1.219686
  H      -3.628172     -2.172617     -1.474185
  H       2.855871      0.517673     -3.961434
  H       0.740758      1.614844      2.342637
  H      -4.247824     -1.657646      1.307930
  H      -6.010712     -2.498119     -1.137534
  H      -6.142770     -0.848944     -0.317952
  H       2.141466     -1.385933     -5.285318
  H       3.010520     -2.539153     -4.134560
  H      -4.997459      1.079635      3.405865
  H      -3.600594     -0.496550      4.606165
  O      -2.123797      0.933556      4.824982
  C      -3.496623      0.530727      4.953153
  C      -4.234382      1.511794      4.048699
  C      -1.994367      1.775006      3.785361
  O      -0.968026      2.204075      3.365579
  O      -3.219618      2.071020      3.259869
  F      -4.827216      2.511779      4.787860
  H      -3.802010      0.627929      5.992300
  H       1.185917      5.894793     -0.828116
  H       2.036772      4.335073     -0.581919
  C       1.069289      4.819205     -0.717238
  F      -0.694014      5.553682      0.716797
  C       0.091197      4.465032      0.399183
  H       0.531214      4.085660      1.317721
  O       0.441161      4.288099     -1.893032
  O      -0.720536      3.476893     -0.176379
  C      -0.558539      3.457971     -1.535218
  O      -1.200510      2.785954     -2.274874
58
Coordinates from ORCA-job honokiol2-opt_FEC2 E -1730.246126764776
  O       1.660451      1.853731      2.155455
  O      -3.636276     -1.518163      2.051779
  C       1.482951      0.209650      0.358521
  C       0.137088     -0.260414      0.785628
  C      -2.256701     -0.482731      0.338150
  C      -0.978431     -0.075914     -0.034837
  C       3.357500      0.061134     -1.211361
  C       2.093374     -0.331473     -0.774687
  C       2.170064      1.210693      1.068735
  C      -0.049428     -0.907295      2.010028
  C      -2.408141     -1.127815      1.574331
  C      -3.450938     -0.183626     -0.546277
  C       3.993155     -0.575650     -2.433517
  C       4.021254      1.039991     -0.474071
  C      -1.307087     -1.348583      2.394865
  C       3.437296      1.609839      0.648502
  C      -4.211736     -1.410194     -0.977029
  C       3.145320     -0.486573     -3.671945
  C      -5.514406     -1.609225     -0.792282
  C       2.744957     -1.522568     -4.399292
  H      -0.856104      0.441551     -0.978619
  H       1.556993     -1.095888     -1.325461
  H       0.798235     -1.080739      2.661651
  H      -4.132134      0.503814     -0.032796
  H      -3.093045      0.345823     -1.433110
  H       4.224576     -1.626927     -2.233055
  H       4.950593     -0.077687     -2.620214
  H       5.010318      1.363914     -0.778354
  H      -1.449010     -1.870138      3.332841
  H       3.952420      2.372482      1.219449
  H      -3.623564     -2.179332     -1.471480
  H       2.846680      0.516333     -3.967289
  H       0.741028      1.605561      2.342044
  H      -4.246135     -1.659760      1.311062
  H      -6.005202     -2.511691     -1.134316
  H      -6.141883     -0.862400     -0.315705
  H       2.137355     -1.392509     -5.286184
  H       3.013912     -2.540055     -4.135397
  H      -5.001031      1.091208      3.400934
  H      -3.610029     -0.486824      4.605357
  O      -2.130918      0.939930      4.828329
  C      -3.505243      0.540528      4.952304
  C      -4.237840      1.522189      4.044495
  C      -1.996511      1.778306      3.786265
  O      -0.967307      2.202536      3.367923
  O      -3.219536      2.076502      3.257086
  F      -4.829388      2.525656      4.780153
  H      -3.813291      0.638781      5.990574
  H       1.194968      5.890574     -0.812284
  H       2.042680      4.328901     -0.567550
  C       1.076463      4.814778     -0.704847
  F      -0.690971      5.546652      0.726046
  C       0.094499      4.458102      0.407164
  H       0.531017      4.076073      1.326390
  O       0.451171      4.288277     -1.884155
  O      -0.716948      3.472930     -0.173996
  C      -0.554069      3.462009     -1.532862
  O      -1.199451      2.798798     -2.277442
58
Coordinates from ORCA-job honokiol2-opt_FEC2 E -1730.246149003416
  O       1.659411      1.850155      2.155301
  O      -3.634995     -1.517632      2.053981
  C       1.482543      0.209077      0.355268
  C       0.137745     -0.262603      0.783602
  C      -2.256572     -0.484278      0.338074
  C      -0.978517     -0.078010     -0.036195
  C       3.354663      0.065111     -1.217488
  C       2.091766     -0.329539     -0.779772
  C       2.170140      1.209007      1.067036
  C      -0.047789     -0.908236      2.008751
  C      -2.406923     -1.127887      1.575276
  C      -3.451232     -0.190238     -0.547033
  C       3.989643     -0.569419     -2.441254
  C       4.018726      1.043214     -0.479467
  C      -1.305583     -1.347870      2.395361
  C       3.436727      1.610044      0.645682
  C      -4.205590     -1.420577     -0.978794
  C       3.137524     -0.486123     -3.677119
  C      -5.507558     -1.625945     -0.796350
  C       2.739868     -1.525028     -4.401815
  H      -0.856312      0.441127     -0.979245
  H       1.555566     -1.093498     -1.331291
  H       0.800391     -1.082165      2.659551
  H      -4.136476      0.493773     -0.034189
  H      -3.095956      0.340586     -1.434054
  H       4.227471     -1.619215     -2.240520
  H       4.943902     -0.066703     -2.631486
  H       5.007147      1.368362     -0.784538
  H      -1.447058     -1.867970      3.334201
  H       3.953046      2.371131      1.217793
  H      -3.612812     -2.186899     -1.472113
  H       2.833286      0.514929     -3.973003
  H       0.742299      1.595648      2.343364
  H      -4.244777     -1.660925      1.313584
  H      -5.993392     -2.530706     -1.139372
  H      -6.139440     -0.882234     -0.320691
  H       2.129035     -1.399062     -5.287081
  H       3.014355     -2.540877     -4.137291
  H      -5.003220      1.104113      3.396820
  H      -3.619440     -0.473402      4.610414
  O      -2.138080      0.950415      4.835080
  C      -3.513484      0.554807      4.954876
  C      -4.240496      1.535099      4.040984
  C      -1.997358      1.783208      3.789154
  O      -0.965255      2.202464      3.372408
  O      -3.218021      2.082114      3.253915
  F      -4.830579      2.543549      4.770688
  H      -3.825359      0.657014      5.991648
  H       1.205659      5.886029     -0.792675
  H       2.049032      4.321878     -0.550381
  C       1.084366      4.810047     -0.689783
  F      -0.687363      5.540456      0.736018
  C       0.097323      4.451154      0.416773
  H       0.529920      4.065810      1.336547
  O       0.462261      4.289311     -1.873396
  O      -0.713803      3.469520     -0.170821
  C      -0.548890      3.467017     -1.529458
  O      -1.197922      2.813938     -2.279817
58
Coordinates from ORCA-job honokiol2-opt_FEC2 E -1730.246169022420
  O       1.660076      1.848592      2.155274
  O      -3.633462     -1.521210      2.055045
  C       1.482116      0.208927      0.354432
  C       0.138213     -0.263768      0.784509
  C      -2.256324     -0.485453      0.339489
  C      -0.978361     -0.078771     -0.034974
  C       3.350722      0.067847     -1.222361
  C       2.089244     -0.328241     -0.782590
  C       2.170791      1.208021      1.065942
  C      -0.046530     -0.909016      2.009831
  C      -2.405544     -1.129093      1.576742
  C      -3.450830     -0.195283     -0.546549
  C       3.984127     -0.564820     -2.447983
  C       4.015912      1.045498     -0.484527
  C      -1.304437     -1.348320      2.396966
  C       3.436499      1.610455      0.642801
  C      -4.198600     -1.429056     -0.980185
  C       3.127649     -0.485964     -3.681095
  C      -5.499853     -1.640742     -0.800272
  C       2.731838     -1.527010     -4.403716
  H      -0.856589      0.441308     -0.977589
  H       1.552927     -1.091899     -1.334361
  H       0.802034     -1.083580      2.659936
  H      -4.140557      0.484833     -0.034531
  H      -3.096783      0.337607     -1.432811
  H       4.227173     -1.613446     -2.247252
  H       4.935786     -0.058539     -2.641756
  H       5.003471      1.371556     -0.791433
  H      -1.445704     -1.868341      3.335870
  H       3.954168      2.370725      1.214786
  H      -3.601130     -2.192500     -1.472297
  H       2.818588      0.513668     -3.976771
  H       0.745330      1.587850      2.346050
  H      -4.241944     -1.665681      1.313907
  H      -5.980574     -2.547818     -1.144346
  H      -6.136282     -0.900196     -0.325700
  H       2.117784     -1.404130     -5.287186
  H       3.011123     -2.541578     -4.139306
  H      -5.001799      1.110772      3.386932
  H      -3.625133     -0.461778      4.615553
  O      -2.144042      0.962149      4.840681
  C      -3.519756      0.568123      4.955297
  C      -4.241561      1.544163      4.032436
  C      -1.996553      1.788010      3.790406
  O      -0.962052      2.203960      3.376322
  O      -3.214583      2.084345      3.246249
  F      -4.832811      2.557595      4.753703
  H      -3.837489      0.676251      5.989711
  H       1.216076      5.882487     -0.773778
  H       2.054688      4.315697     -0.534194
  C       1.091610      4.806420     -0.675391
  F      -0.683212      5.537096      0.745286
  C       0.099522      4.446305      0.426156
  H       0.528631      4.057278      1.346012
  O       0.472260      4.291448     -1.863136
  O      -0.711757      3.468535     -0.167466
  C      -0.544152      3.472789     -1.525742
  O      -1.196394      2.828991     -2.281367
