! OPT B3LYP def2-TZVP TightSCF

%maxcore 5000

%pal
nprocs 25
end

* xyz 0 1
O           1.66125687428485      1.86462619260879      2.15840480610305
  O          -3.64072646467866     -1.52869255041700      2.04151283906418
  C           1.47998381280470      0.21235020831644      0.36599328734610
  C           0.13415061405137     -0.26081495024865      0.79113907604623
  C          -2.25966847356144     -0.47883071689287      0.33682730919713
  C          -0.97928791995061     -0.06950324005631     -0.03046847964106
  C           3.35624135159079      0.05112146866142     -1.20027803161066
  C           2.09186333850820     -0.33688869488870     -0.76357314894122
  C           2.16823662227097      1.21455600450201      1.07205454371204
  C          -0.05408351338261     -0.91355793887736      2.01165246091407
  C          -2.41155264267500     -1.13122168454085      1.56832288379768
  C          -3.44881912281668     -0.17258809630502     -0.55209666833632
  C           3.99312008837517     -0.59356725931726     -2.41769118443449
  C           4.02079436288689      1.03428755318019     -0.46836055955216
  C          -1.31307087202115     -1.35695383446160      2.39043492691355
  C           3.43763435851205      1.61043738079800      0.65077151032205
  C          -4.21107233339155     -1.39441733902091     -0.99280387476864
  C           3.15483349979018     -0.49347614438850     -3.66197753336512
  C          -5.51478801168419     -1.59161127327403     -0.81405899511513
  C           2.74946179178799     -1.52370445463763     -4.39466816255457
  H          -0.85887048109938      0.44624125598657     -0.97592187912187
  H           1.55760614307224     -1.10435211054403     -1.31203192720522
  H           0.79256526785247     -1.09044950030181      2.66348795245509
  H          -4.13123744353982      0.51573246483225     -0.04119056108301
  H          -3.07808324968150      0.35827047127968     -1.43246778538429
  H           4.20996610033354     -1.64762110515979     -2.21576915093052
  H           4.95839754650441     -0.10840580707910     -2.59754450777734
  H           5.01077786704535      1.35420953262723     -0.77398548337620
  H          -1.45739531965677     -1.88455582524434      3.32459343882956
  H           3.95289199770297      2.37691066437809      1.21654712570383
  H          -3.62306697315261     -2.16270517664120     -1.48879578495549
  H           2.86846802653547      0.51319667194686     -3.95657538228287
  H           0.73925660018230      1.62979796699276      2.34695049736212
  H          -4.25108969105313     -1.65260412498332      1.29813966346928
  H          -6.00581598675640     -2.49135854822892     -1.16283562674335
  H          -6.14267420503570     -0.84620413206810     -0.33578455553045
  H           2.14937549958818     -1.38551714762915     -5.28545313892996
  H           3.00606203422212     -2.54452460733017     -4.13135211866141
  H          -4.99272205988718      1.07417244378910      3.42513354385163
  H          -3.58890541695591     -0.50101170992521      4.62195987031893
  O          -2.11122584326292      0.92945569988331      4.82741451578907
  C          -3.48119575073332      0.52729577615149      4.96553018336402
  C          -4.22761876016690      1.50712725691309      4.06513919389514
  C          -1.98790482885592      1.77249157557136      3.78953424406264
  O          -0.96537386300147      2.20899568881028      3.36613337452393
  O          -3.21829459114101      2.06660442468620      3.26899096547466
  F          -4.81618994403682      2.50525314955753      4.80858122583433
  H          -3.78072038477833      0.62822724681850      6.00624403449342
  H           1.17273292660181      5.90392288708249     -0.84046097402147
  H           2.02637530426012      4.34647697447218     -0.59700673516728
  C           1.05735706746586      4.82823295858345     -0.72789123187780
  F          -0.69909703347411      5.56724155756354      0.70838164703762
  C           0.08293329465022      4.47676840853543      0.39267373098325
  H           0.52832428333113      4.09932900287588      1.30970104485652
  O           0.42380845275622      4.29314322344491     -1.89937442897010
  O          -0.72940250630449      3.48454256579790     -0.17560514661916
  C          -0.56700439865235      3.45529204586641     -1.53345381754210
  O          -1.20395528897957      2.77189699884827     -2.26712055002207
*
