! Opt B3LYP def2-TZVP TightSCF TightOpt CPCM(water)

%maxcore 5000

%pal
nprocs 20
end

* xyz 0 1
O           1.43781396904993      1.31956612345791      2.48468433319581
  O          -3.62347843921718     -2.41724762608739      2.17112963576646
  C           1.23165087469998     -0.04524406273437      0.48175268561596
  C          -0.05012954589113     -0.65101744071631      0.92722451694895
  C          -2.40247599363198     -1.17018447501868      0.48054858121080
  C          -1.18619584648327     -0.59889388847865      0.11437325586950
  C           2.98671349428596      0.16172341264446     -1.21215839741290
  C           1.78640847772282     -0.37901636024270     -0.75579095655152
  C           1.91364468124659      0.89170120951340      1.27839826479913
  C          -0.16528004599369     -1.31154866721798      2.15724603164201
  C          -2.47719084918800     -1.83509953484444      1.71527307384049
  C          -3.61882313162164     -1.03763140152487     -0.41452229491397
  C           3.55763066373366     -0.24510356891412     -2.55778596311962
  C           3.64211878060039      1.07664773964895     -0.38967756999719
  C          -1.36131883286036     -1.89633601264824      2.54500150927538
  C           3.11264860069266      1.44271939201016      0.83960929677719
  C          -4.20446513091141     -2.35282843998708     -0.86066146783848
  C           2.68255033666981      0.13917581891887     -3.71901332384119
  C          -5.47582989442325     -2.71293389458071     -0.70951440370433
  C           2.19414321790238     -0.70348418126244     -4.62143192850212
  H          -1.12460822711274     -0.07615306412587     -0.83348737784514
  H           1.26403225671752     -1.10060012982200     -1.37392145731422
  H           0.70081798328530     -1.40372573930811      2.80194484009726
  H          -4.39612253758763     -0.45202524555229      0.08900696020899
  H          -3.32510329965460     -0.46649040195218     -1.30004366119698
  H           3.73330844460754     -1.32510454919781     -2.58297114513916
  H           4.53597071845039      0.23246026544822     -2.67605930204806
  H           4.58076893342698      1.51307857937819     -0.71196482832420
  H          -1.44513104884310     -2.42398580467270      3.48636157770594
  H           3.61250715706545      2.16559210094313      1.47150912258637
  H          -3.51037409872096     -3.04098535599171     -1.33664325474117
  H           2.44395701096569      1.19733239237477     -3.79630315117068
  H           0.56607731197043      0.93171817042748      2.64077888837304
  H          -4.23488212903567     -2.57265466930178      1.43672265040035
  H          -5.83907487278300     -3.67107868737665     -1.05895616458907
  H          -6.20283074610648     -2.05403842652119     -0.24523589971118
  H           1.57171583625792     -0.36205147411773     -5.43930106676794
  H           2.40419585081472     -1.76704531166749     -4.57823511468454
*
