38
Coordinates from ORCA-job honokiol2 E -846.983288445002
  O       1.437814      1.319566      2.484684
  O      -3.623478     -2.417248      2.171130
  C       1.231651     -0.045244      0.481753
  C      -0.050130     -0.651017      0.927225
  C      -2.402476     -1.170184      0.480549
  C      -1.186196     -0.598894      0.114373
  C       2.986713      0.161723     -1.212158
  C       1.786408     -0.379016     -0.755791
  C       1.913645      0.891701      1.278398
  C      -0.165280     -1.311549      2.157246
  C      -2.477191     -1.835100      1.715273
  C      -3.618823     -1.037631     -0.414522
  C       3.557631     -0.245104     -2.557786
  C       3.642119      1.076648     -0.389678
  C      -1.361319     -1.896336      2.545002
  C       3.112649      1.442719      0.839609
  C      -4.204465     -2.352828     -0.860661
  C       2.682550      0.139176     -3.719013
  C      -5.475830     -2.712934     -0.709514
  C       2.194143     -0.703484     -4.621432
  H      -1.124608     -0.076153     -0.833487
  H       1.264032     -1.100600     -1.373921
  H       0.700818     -1.403726      2.801945
  H      -4.396123     -0.452025      0.089007
  H      -3.325103     -0.466490     -1.300044
  H       3.733308     -1.325105     -2.582971
  H       4.535971      0.232460     -2.676059
  H       4.580769      1.513079     -0.711965
  H      -1.445131     -2.423986      3.486362
  H       3.612507      2.165592      1.471509
  H      -3.510374     -3.040985     -1.336643
  H       2.443957      1.197332     -3.796303
  H       0.566077      0.931718      2.640779
  H      -4.234882     -2.572655      1.436723
  H      -5.839075     -3.671079     -1.058956
  H      -6.202831     -2.054038     -0.245236
  H       1.571716     -0.362051     -5.439301
  H       2.404196     -1.767045     -4.578235
38
Coordinates from ORCA-job honokiol2 E -846.983420811773
  O       1.443681      1.340094      2.484317
  O      -3.629803     -2.412091      2.173970
  C       1.229196     -0.041586      0.488160
  C      -0.053497     -0.646957      0.934871
  C      -2.405991     -1.166212      0.483653
  C      -1.189507     -0.593659      0.120075
  C       2.983953      0.153626     -1.211443
  C       1.781588     -0.381123     -0.749933
  C       1.915985      0.898621      1.278952
  C      -0.165857     -1.314869      2.161264
  C      -2.479375     -1.834448      1.717065
  C      -3.620255     -1.035727     -0.414167
  C       3.551656     -0.259966     -2.556589
  C       3.645192      1.069357     -0.393861
  C      -1.362178     -1.902138      2.545932
  C       3.117495      1.442973      0.835142
  C      -4.191923     -2.353280     -0.872605
  C       2.685340      0.141279     -3.719301
  C      -5.459163     -2.728895     -0.719066
  C       2.183626     -0.692730     -4.624233
  H      -1.128640     -0.071576     -0.828141
  H       1.255928     -1.104223     -1.363625
  H       0.698771     -1.406661      2.808198
  H      -4.403479     -0.462216      0.093490
  H      -3.327553     -0.454992     -1.293525
  H       3.709500     -1.342617     -2.582756
  H       4.536877      0.203749     -2.670963
  H       4.584510      1.501622     -0.720086
  H      -1.444788     -2.431473      3.487260
  H       3.622150      2.168273      1.461822
  H      -3.492737     -3.026684     -1.362921
  H       2.469476      1.204721     -3.798786
  H       0.568185      0.961218      2.651692
  H      -4.252836     -2.549480      1.442496
  H      -5.813497     -3.687156     -1.079271
  H      -6.188630     -2.086009     -0.236030
  H       1.570476     -0.338732     -5.444706
  H       2.371483     -1.760828     -4.578465
