38
Coordinates from ORCA-job honokiol2 E -846.983600234178
  O           1.43316478889239      1.41261363272751      2.39950071883508
  O          -3.68900134919574     -2.30303073209569      2.26341692549051
  C           1.20086231433000     -0.07207443470002      0.48072405070946
  C          -0.08943140320458     -0.64048022674503      0.95370425025501
  C          -2.43659540314115     -1.18737703813600      0.50336787761980
  C          -1.21202988695734     -0.64606733171316      0.11845166307923
  C           2.96160374536753      0.00918010820422     -1.22350589175575
  C           1.75354241180355     -0.48584003629207     -0.73619158788035
  C           1.89835892376808      0.90098339195145      1.21846652637447
  C          -0.22358280033379     -1.21134231502751      2.22555138235192
  C          -2.53125392141136     -1.75766938102120      1.78349533429283
  C          -3.63227743495946     -1.13286078341976     -0.42665741041983
  C           3.50948456721292     -0.45953742847836     -2.55818124825742
  C           3.63518747511195      0.95934666048325     -0.45501097951275
  C          -1.42925072514993     -1.76397144404259      2.63422987083572
  C           3.10848746889935      1.40525785092957      0.74980566985506
  C          -4.16220177524769     -2.48979631950978     -0.81681670530307
  C           2.92605314542366      0.29553492087450     -3.72369813193058
  C          -5.42341106029935     -2.88600150346123     -0.66544484123936
  C           2.26256485562298     -0.25446623572320     -4.73582667317481
  H          -1.13712574906857     -0.19823168038467     -0.86591509291125
  H           1.22208964719813     -1.23723683526039     -1.30989774216435
  H           0.62746749769811     -1.25660825706399      2.89483564435214
  H          -4.43918864866237     -0.54950822343955      0.02978214165543
  H          -3.32904194800566     -0.59830574091138     -1.33100114000751
  H           3.31765985255049     -1.52746527808656     -2.68800224434630
  H           4.59582627599776     -0.32230769263472     -2.55648753231802
  H           4.58282203334227      1.35809934815972     -0.79929047038915
  H          -1.52514476901738     -2.21832843724619      3.61266527492997
  H           3.62522484012835      2.15338697610266      1.33864910458306
  H          -3.43577837763852     -3.17323633339741     -1.24977091244773
  H           3.07140720806221      1.37351555869354     -3.70511619433304
  H           0.55550948964449      1.05268344825546      2.59270999268321
  H          -4.31441598487903     -2.46499670661264      1.54050224401121
  H          -5.74586394740718     -3.87389432849262     -0.97138180295647
  H          -6.17701779680231     -2.23124586324005     -0.23864376408505
  H           1.86695918564974      0.34577277245393     -5.54676513199807
  H           2.09369718477749     -1.32528729079994     -4.78836667958327
