38
Coordinates from ORCA-job honokiol2 E -846.983288445002
  O       1.437814      1.319566      2.484684
  O      -3.623478     -2.417248      2.171130
  C       1.231651     -0.045244      0.481753
  C      -0.050130     -0.651017      0.927225
  C      -2.402476     -1.170184      0.480549
  C      -1.186196     -0.598894      0.114373
  C       2.986713      0.161723     -1.212158
  C       1.786408     -0.379016     -0.755791
  C       1.913645      0.891701      1.278398
  C      -0.165280     -1.311549      2.157246
  C      -2.477191     -1.835100      1.715273
  C      -3.618823     -1.037631     -0.414522
  C       3.557631     -0.245104     -2.557786
  C       3.642119      1.076648     -0.389678
  C      -1.361319     -1.896336      2.545002
  C       3.112649      1.442719      0.839609
  C      -4.204465     -2.352828     -0.860661
  C       2.682550      0.139176     -3.719013
  C      -5.475830     -2.712934     -0.709514
  C       2.194143     -0.703484     -4.621432
  H      -1.124608     -0.076153     -0.833487
  H       1.264032     -1.100600     -1.373921
  H       0.700818     -1.403726      2.801945
  H      -4.396123     -0.452025      0.089007
  H      -3.325103     -0.466490     -1.300044
  H       3.733308     -1.325105     -2.582971
  H       4.535971      0.232460     -2.676059
  H       4.580769      1.513079     -0.711965
  H      -1.445131     -2.423986      3.486362
  H       3.612507      2.165592      1.471509
  H      -3.510374     -3.040985     -1.336643
  H       2.443957      1.197332     -3.796303
  H       0.566077      0.931718      2.640779
  H      -4.234882     -2.572655      1.436723
  H      -5.839075     -3.671079     -1.058956
  H      -6.202831     -2.054038     -0.245236
  H       1.571716     -0.362051     -5.439301
  H       2.404196     -1.767045     -4.578235
38
Coordinates from ORCA-job honokiol2 E -846.983420811773
  O       1.443681      1.340094      2.484317
  O      -3.629803     -2.412091      2.173970
  C       1.229196     -0.041586      0.488160
  C      -0.053497     -0.646957      0.934871
  C      -2.405991     -1.166212      0.483653
  C      -1.189507     -0.593659      0.120075
  C       2.983953      0.153626     -1.211443
  C       1.781588     -0.381123     -0.749933
  C       1.915985      0.898621      1.278952
  C      -0.165857     -1.314869      2.161264
  C      -2.479375     -1.834448      1.717065
  C      -3.620255     -1.035727     -0.414167
  C       3.551656     -0.259966     -2.556589
  C       3.645192      1.069357     -0.393861
  C      -1.362178     -1.902138      2.545932
  C       3.117495      1.442973      0.835142
  C      -4.191923     -2.353280     -0.872605
  C       2.685340      0.141279     -3.719301
  C      -5.459163     -2.728895     -0.719066
  C       2.183626     -0.692730     -4.624233
  H      -1.128640     -0.071576     -0.828141
  H       1.255928     -1.104223     -1.363625
  H       0.698771     -1.406661      2.808198
  H      -4.403479     -0.462216      0.093490
  H      -3.327553     -0.454992     -1.293525
  H       3.709500     -1.342617     -2.582756
  H       4.536877      0.203749     -2.670963
  H       4.584510      1.501622     -0.720086
  H      -1.444788     -2.431473      3.487260
  H       3.622150      2.168273      1.461822
  H      -3.492737     -3.026684     -1.362921
  H       2.469476      1.204721     -3.798786
  H       0.568185      0.961218      2.651692
  H      -4.252836     -2.549480      1.442496
  H      -5.813497     -3.687156     -1.079271
  H      -6.188630     -2.086009     -0.236030
  H       1.570476     -0.338732     -5.444706
  H       2.371483     -1.760828     -4.578465
38
Coordinates from ORCA-job honokiol2 E -846.983459436076
  O       1.449959      1.345451      2.484236
  O      -3.633029     -2.408647      2.176931
  C       1.226684     -0.040724      0.490539
  C      -0.056679     -0.644728      0.938476
  C      -2.408501     -1.165935      0.484075
  C      -1.191035     -0.595126      0.120506
  C       2.982190      0.144078     -1.211515
  C       1.778482     -0.386028     -0.746751
  C       1.917295      0.899822      1.277255
  C      -0.170029     -1.305468      2.168197
  C      -2.482424     -1.828289      1.720795
  C      -3.620012     -1.040822     -0.418219
  C       3.547388     -0.274128     -2.556472
  C       3.647127      1.060711     -0.397519
  C      -1.367152     -1.892210      2.552593
  C       3.120529      1.439065      0.831184
  C      -4.184412     -2.361903     -0.875993
  C       2.693961      0.151095     -3.720529
  C      -5.450671     -2.741726     -0.722561
  C       2.176258     -0.668848     -4.630106
  H      -1.129835     -0.078474     -0.830606
  H       1.250392     -1.110107     -1.357241
  H       0.691504     -1.390147      2.820120
  H      -4.406984     -0.470197      0.086626
  H      -3.325042     -0.460940     -1.297084
  H       3.682759     -1.359512     -2.587108
  H       4.541329      0.171891     -2.663963
  H       4.587488      1.489140     -0.725549
  H      -1.449571     -2.416633      3.496828
  H       3.629537      2.164130      1.454905
  H      -3.481860     -3.032447     -1.365266
  H       2.503855      1.219658     -3.798014
  H       0.574165      0.971034      2.660087
  H      -4.258739     -2.541729      1.446962
  H      -5.800368     -3.702404     -1.081209
  H      -6.181946     -2.100671     -0.239675
  H       1.574060     -0.297807     -5.451334
  H       2.338688     -1.741216     -4.585714
38
Coordinates from ORCA-job honokiol2 E -846.983485752418
  O       1.454046      1.354901      2.478931
  O      -3.637063     -2.401077      2.184122
  C       1.224959     -0.042473      0.493607
  C      -0.059469     -0.642971      0.943757
  C      -2.410018     -1.167560      0.485877
  C      -1.191265     -0.599027      0.122061
  C       2.980047      0.129457     -1.211149
  C       1.775637     -0.395324     -0.742378
  C       1.918749      0.900247      1.273965
  C      -0.175404     -1.293676      2.178094
  C      -2.485964     -1.820967      1.727183
  C      -3.618270     -1.048941     -0.421789
  C       3.541409     -0.294722     -2.555989
  C       3.648086      1.049008     -0.402724
  C      -1.374043     -1.877866      2.563281
  C       3.122579      1.434703      0.824444
  C      -4.174584     -2.373878     -0.878966
  C       2.707297      0.165252     -3.721052
  C      -5.440128     -2.757570     -0.728740
  C       2.166972     -0.632519     -4.637397
  H      -1.129019     -0.089403     -0.832700
  H       1.245292     -1.121577     -1.348375
  H       0.683124     -1.372792      2.834475
  H      -4.409825     -0.481200      0.078940
  H      -3.320512     -0.469972     -1.300151
  H       3.644050     -1.383207     -2.594275
  H       4.547894      0.124364     -2.653903
  H       4.589163      1.473542     -0.733478
  H      -1.457039     -2.395007      3.511362
  H       3.634884      2.161705      1.443059
  H      -3.467264     -3.042490     -1.363645
  H       2.552238      1.239761     -3.792994
  H       0.577872      0.985489      2.660937
  H      -4.264937     -2.530673      1.456048
  H      -5.784248     -3.720929     -1.085432
  H      -6.174868     -2.116757     -0.250957
  H       1.580034     -0.237005     -5.458155
  H       2.294951     -1.709638     -4.598009
38
Coordinates from ORCA-job honokiol2 E -846.983516502745
  O       1.461495      1.365167      2.469090
  O      -3.648770     -2.376063      2.201125
  C       1.222099     -0.047448      0.496662
  C      -0.064859     -0.639043      0.951464
  C      -2.413343     -1.169548      0.489174
  C      -1.191925     -0.607236      0.123261
  C       2.976298      0.101452     -1.211515
  C       1.770386     -0.413392     -0.736930
  C       1.921585      0.898079      1.267180
  C      -0.187571     -1.268236      2.195781
  C      -2.495704     -1.801573      1.740847
  C      -3.615028     -1.067391     -0.429226
  C       3.529804     -0.332013     -2.556768
  C       3.650406      1.024247     -0.411562
  C      -1.389602     -1.844403      2.584450
  C       3.127501      1.422680      0.812715
  C      -4.156692     -2.401244     -0.878969
  C       2.735189      0.194508     -3.721603
  C      -5.420922     -2.791782     -0.736103
  C       2.154603     -0.556450     -4.652746
  H      -1.125979     -0.113421     -0.839465
  H       1.235827     -1.142432     -1.335958
  H       0.666228     -1.337895      2.859195
  H      -4.415196     -0.501879      0.060019
  H      -3.312550     -0.494084     -1.309594
  H       3.569779     -1.423484     -2.612363
  H       4.558649      0.032998     -2.636754
  H       4.593638      1.440731     -0.746220
  H      -1.475813     -2.344747      3.541043
  H       3.645739      2.151547      1.423904
  H      -3.439647     -3.069173     -1.349715
  H       2.645531      1.277204     -3.778867
  H       0.584359      1.002503      2.657542
  H      -4.278804     -2.504029      1.475555
  H      -5.754313     -3.761504     -1.085398
  H      -6.163738     -2.149718     -0.272935
  H       1.598368     -0.114162     -5.470859
  H       2.218330     -1.639556     -4.627571
38
Coordinates from ORCA-job honokiol2 E -846.983539108034
  O       1.462681      1.375149      2.457060
  O      -3.659367     -2.353717      2.217282
  C       1.219673     -0.053340      0.497290
  C      -0.069051     -0.637333      0.956540
  C      -2.416829     -1.171011      0.493809
  C      -1.193430     -0.614859      0.124745
  C       2.973167      0.077821     -1.212646
  C       1.766712     -0.430412     -0.733676
  C       1.921778      0.896649      1.259640
  C      -0.197165     -1.250325      2.208440
  C      -2.504635     -1.785968      1.753359
  C      -3.614329     -1.082028     -0.431370
  C       3.521191     -0.363525     -2.557522
  C       3.650142      1.005095     -0.420261
  C      -1.401620     -1.819059      2.601045
  C       3.128818      1.414574      0.800797
  C      -4.144861     -2.422723     -0.874354
  C       2.764466      0.218187     -3.721681
  C      -5.407796     -2.819439     -0.738647
  C       2.154078     -0.489986     -4.666977
  H      -1.124449     -0.133229     -0.843899
  H       1.230547     -1.163307     -1.326574
  H       0.654362     -1.315129      2.875234
  H      -4.420815     -0.517903      0.049051
  H      -3.310052     -0.513000     -1.313929
  H       3.507662     -1.454481     -2.628744
  H       4.567164     -0.047223     -2.621922
  H       4.594813      1.415801     -0.758075
  H      -1.490754     -2.306404      3.563966
  H       3.649708      2.146593      1.405783
  H      -3.419788     -3.090229     -1.333141
  H       2.729513      1.304648     -3.764340
  H       0.584391      1.016402      2.646943
  H      -4.290844     -2.481608      1.493539
  H      -5.732435     -3.794058     -1.082317
  H      -6.158033     -2.177273     -0.287816
  H       1.626803     -0.009045     -5.482353
  H       2.163944     -1.575096     -4.656393
38
Coordinates from ORCA-job honokiol2 E -846.983565230037
  O       1.457024      1.382770      2.442948
  O      -3.669338     -2.333743      2.231623
  C       1.217154     -0.060540      0.494302
  C      -0.072553     -0.638423      0.957561
  C      -2.420791     -1.173097      0.498008
  C      -1.196049     -0.623457      0.124389
  C       2.971540      0.057498     -1.214644
  C       1.765180     -0.447595     -0.733112
  C       1.918119      0.895965      1.250141
  C      -0.205101     -1.237983      2.215993
  C      -2.513159     -1.773850      1.763869
  C      -3.616716     -1.094819     -0.429986
  C       3.517507     -0.390449     -2.557902
  C       3.647549      0.991030     -0.428912
  C      -1.410993     -1.799650      2.613265
  C       3.125704      1.410323      0.788103
  C      -4.141814     -2.440962     -0.862457
  C       2.799423      0.239759     -3.721665
  C      -5.403800     -2.841284     -0.730441
  C       2.168500     -0.427625     -4.682748
  H      -1.124291     -0.151888     -0.849023
  H       1.230412     -1.185722     -1.320771
  H       0.645905     -1.299544      2.883904
  H      -4.426218     -0.528756      0.043208
  H      -3.313321     -0.531773     -1.316826
  H       3.456633     -1.478567     -2.644355
  H       4.577181     -0.119940     -2.606842
  H       4.593074      1.398306     -0.768765
  H      -1.503271     -2.276030      3.581378
  H       3.645682      2.146720      1.388534
  H      -3.411830     -3.110584     -1.310448
  H       2.811599      1.327227     -3.748414
  H       0.578188      1.023504      2.630466
  H      -4.301135     -2.464409      1.508752
  H      -5.723370     -3.820070     -1.066888
  H      -6.159317     -2.198083     -0.289924
  H       1.670381      0.087173     -5.495775
  H       2.131674     -1.512224     -4.688656
38
Coordinates from ORCA-job honokiol2 E -846.983584250919
  O       1.450796      1.394919      2.423297
  O      -3.683312     -2.306833      2.251536
  C       1.211529     -0.068835      0.489682
  C      -0.079591     -0.638056      0.958896
  C      -2.427971     -1.176120      0.503249
  C      -1.202043     -0.634021      0.123728
  C       2.967357      0.028169     -1.218451
  C       1.759954     -0.470334     -0.732901
  C       1.912758      0.895543      1.236089
  C      -0.216683     -1.219399      2.225859
  C      -2.525402     -1.756984      1.778083
  C      -3.621700     -1.114000     -0.428643
  C       3.509752     -0.429254     -2.559568
  C       3.644232      0.968811     -0.442003
  C      -1.424072     -1.772041      2.629615
  C       3.122072      1.402710      0.769384
  C      -4.139194     -2.468148     -0.844612
  C       2.853306      0.269534     -3.721097
  C      -5.399502     -2.873892     -0.714455
  C       2.196926     -0.335688     -4.705956
  H      -1.126552     -0.177597     -0.856641
  H       1.225417     -1.214447     -1.313180
  H       0.633431     -1.273740      2.895664
  H      -4.435071     -0.544903      0.034384
  H      -3.319707     -0.560712     -1.322175
  H       3.380019     -1.509009     -2.669221
  H       4.585456     -0.227297     -2.586175
  H       4.591225      1.370100     -0.785122
  H      -1.520277     -2.233316      3.604741
  H       3.642103      2.144311      1.363488
  H      -3.403254     -3.140335     -1.279119
  H       2.935351      1.354343     -3.723669
  H       0.571011      1.036997      2.610668
  H      -4.315442     -2.444088      1.529953
  H      -5.712349     -3.858800     -1.039265
  H      -6.161535     -2.229794     -0.286415
  H       1.745724      0.226760     -5.514909
  H       2.090603     -1.415344     -4.736853
38
Coordinates from ORCA-job honokiol2 E -846.983585007774
  O       1.442899      1.411645      2.399555
  O      -3.695554     -2.285209      2.273306
  C       1.201946     -0.074932      0.483120
  C      -0.089819     -0.636501      0.959419
  C      -2.438073     -1.180708      0.509693
  C      -1.212011     -0.644440      0.123351
  C       2.959379     -0.002519     -1.224502
  C       1.750279     -0.492351     -0.734302
  C       1.904646      0.897133      1.218549
  C      -0.228667     -1.199725      2.234606
  C      -2.537414     -1.742813      1.792963
  C      -3.630902     -1.134588     -0.424169
  C       3.498766     -0.472174     -2.562243
  C       3.638386      0.945263     -0.458436
  C      -1.436271     -1.745888      2.645381
  C       3.116077      1.395401      0.746718
  C      -4.140938     -2.496472     -0.823609
  C       2.921541      0.298872     -3.720646
  C      -5.398989     -2.908173     -0.690916
  C       2.243568     -0.233785     -4.732468
  H      -1.134773     -0.202615     -0.863566
  H       1.215298     -1.242820     -1.305964
  H       0.621185     -1.245054      2.905541
  H      -4.447441     -0.563421      0.030739
  H      -3.331479     -0.590719     -1.324325
  H       3.291336     -1.536356     -2.698466
  H       4.586881     -0.350364     -2.562520
  H       4.587268      1.339125     -0.805042
  H      -1.534353     -2.193043      3.626960
  H       3.637096      2.142183      1.333558
  H      -3.400338     -3.170029     -1.248137
  H       3.083926      1.374331     -3.695852
  H       0.562093      1.057096      2.589556
  H      -4.328442     -2.431102      1.554033
  H      -5.705712     -3.898905     -1.003794
  H      -6.166138     -2.264017     -0.272003
  H       1.852524      0.378347     -5.536739
  H       2.057581     -1.301468     -4.791463
38
Coordinates from ORCA-job honokiol2 E -846.983594490170
  O       1.441538      1.407471      2.408514
  O      -3.686305     -2.304182      2.262302
  C       1.204453     -0.070134      0.484535
  C      -0.086067     -0.637762      0.957382
  C      -2.434392     -1.180418      0.506728
  C      -1.209614     -0.639068      0.123152
  C       2.962834      0.014459     -1.221888
  C       1.754348     -0.480239     -0.734624
  C       1.904776      0.899434      1.225158
  C      -0.221051     -1.213027      2.227368
  C      -2.529647     -1.755634      1.784599
  C      -3.629828     -1.123382     -0.423312
  C       3.507557     -0.451541     -2.558883
  C       3.639089      0.960306     -0.450950
  C      -1.427005     -1.765481      2.634861
  C       3.115067      1.403010      0.756368
  C      -4.147621     -2.479926     -0.830859
  C       2.896883      0.284171     -3.722781
  C      -5.407036     -2.886538     -0.694481
  C       2.233126     -0.284852     -4.724192
  H      -1.134874     -0.187501     -0.859531
  H       1.220993     -1.228809     -1.310227
  H       0.630117     -1.262235      2.896298
  H      -4.442244     -0.551946      0.038518
  H      -3.330585     -0.574848     -1.320651
  H       3.336806     -1.524069     -2.680822
  H       4.590794     -0.292349     -2.568421
  H       4.586934      1.358540     -0.795301
  H      -1.522622     -2.222694      3.612028
  H       3.633885      2.148392      1.346913
  H      -3.412634     -3.153568     -1.264822
  H       3.021350      1.364904     -3.712371
  H       0.561731      1.050551      2.598189
  H      -4.317975     -2.450193      1.541854
  H      -5.720135     -3.873341     -1.013420
  H      -6.168790     -2.241939     -0.266563
  H       1.816941      0.302713     -5.534136
  H       2.084560     -1.359068     -4.768646
38
Coordinates from ORCA-job honokiol2 E -846.983597441395
  O       1.439372      1.407651      2.407626
  O      -3.685899     -2.306200      2.260890
  C       1.203749     -0.070151      0.483713
  C      -0.086669     -0.638696      0.955957
  C      -2.434670     -1.182124      0.505216
  C      -1.210120     -0.640234      0.121610
  C       2.962876      0.015175     -1.222034
  C       1.754595     -0.480322     -0.735033
  C       1.903059      0.899894      1.224255
  C      -0.220845     -1.214122      2.225819
  C      -2.529153     -1.757677      1.782983
  C      -3.630550     -1.124538     -0.424157
  C       3.509180     -0.450915     -2.558327
  C       3.638073      0.961944     -0.451110
  C      -1.426549     -1.767390      2.633173
  C       3.113106      1.404404      0.755900
  C      -4.152569     -2.480662     -0.827687
  C       2.901954      0.285527     -3.723522
  C      -5.412592     -2.883878     -0.686328
  C       2.240583     -0.282933     -4.726823
  H      -1.135482     -0.188492     -0.861001
  H       1.221745     -1.229121     -1.310842
  H       0.630383     -1.262014      2.894747
  H      -4.440867     -0.549835      0.037225
  H      -3.330506     -0.579349     -1.323237
  H       3.337486     -1.523255     -2.680527
  H       4.592621     -0.292931     -2.565923
  H       4.585615      1.361043     -0.795231
  H      -1.522193     -2.225032      3.610129
  H       3.630979      2.150280      1.346638
  H      -3.420708     -3.156975     -1.262713
  H       3.027175      1.366162     -3.712641
  H       0.560422      1.049542      2.598697
  H      -4.315975     -2.456272      1.539784
  H      -5.729115     -3.870563     -1.002265
  H      -6.171454     -2.236606     -0.257354
  H       1.827066      0.304878     -5.537951
  H       2.091238     -1.357009     -4.771771
38
Coordinates from ORCA-job honokiol2 E -846.983599828886
  O       1.433873      1.411603      2.401796
  O      -3.686788     -2.306834      2.261656
  C       1.201512     -0.071198      0.481509
  C      -0.088711     -0.640414      0.953843
  C      -2.436107     -1.186118      0.503637
  C      -1.211812     -0.644095      0.119145
  C       2.962109      0.012025     -1.222889
  C       1.754087     -0.483702     -0.735784
  C       1.898949      0.901270      1.220081
  C      -0.221888     -1.213977      2.224523
  C      -2.529777     -1.759492      1.782489
  C      -3.632527     -1.129505     -0.425157
  C       3.510424     -0.455887     -2.557636
  C       3.635486      0.961758     -0.453710
  C      -1.427291     -1.767561      2.632650
  C       3.108752      1.406371      0.751664
  C      -4.161384     -2.485681     -0.819525
  C       2.919551      0.291734     -3.724125
  C      -5.422358     -2.883132     -0.669687
  C       2.258845     -0.265725     -4.733992
  H      -1.137198     -0.193955     -0.864199
  H       1.222535     -1.234380     -1.310346
  H       0.629552     -1.259686      2.893265
  H      -4.439585     -0.548464      0.033954
  H      -3.330856     -0.591609     -1.328044
  H       3.326382     -1.525614     -2.684197
  H       4.595747     -0.310884     -2.558511
  H       4.582768      1.361339     -0.797941
  H      -1.523049     -2.224197      3.610050
  H       3.624975      2.154248      1.341295
  H      -3.434440     -3.167248     -1.254516
  H       3.056972      1.370811     -3.708517
  H       0.556134      1.051992      2.595007
  H      -4.313829     -2.465284      1.539502
  H      -5.744249     -3.870267     -0.978732
  H      -6.176710     -2.230540     -0.240859
  H       1.857738      0.329359     -5.546047
  H       2.097527     -1.337854     -4.783764
38
Coordinates from ORCA-job honokiol2 E -846.983600103217
  O       1.433597      1.411717      2.400831
  O      -3.687867     -2.304753      2.262554
  C       1.201275     -0.071772      0.481196
  C      -0.089017     -0.640620      0.953763
  C      -2.436289     -1.186748      0.503460
  C      -1.211830     -0.645141      0.118765
  C       2.961893      0.010682     -1.223162
  C       1.753945     -0.484864     -0.735906
  C       1.898664      0.901010      1.219331
  C      -0.222652     -1.212752      2.225057
  C      -2.530448     -1.758539      1.782966
  C      -3.632337     -1.131169     -0.425919
  C       3.509946     -0.457480     -2.557938
  C       3.635267      0.960744     -0.454354
  C      -1.428248     -1.765773      2.633457
  C       3.108537      1.405883      0.750783
  C      -4.161772     -2.487712     -0.818223
  C       2.922463      0.293595     -3.723950
  C      -5.422903     -2.884416     -0.667676
  C       2.260710     -0.260447     -4.735002
  H      -1.136968     -0.196146     -0.865081
  H       1.222491     -1.235924     -1.310073
  H       0.628612     -1.258102      2.894055
  H      -4.439296     -0.548973      0.031894
  H      -3.329887     -0.594958     -1.329546
  H       3.322370     -1.526396     -2.686027
  H       4.595740     -0.315972     -2.557666
  H       4.582649      1.360051     -0.798648
  H      -1.524236     -2.221237      3.611374
  H       3.624902      2.153907      1.340087
  H      -3.435130     -3.170270     -1.252161
  H       3.063317      1.372201     -3.706833
  H       0.556019      1.051775      2.594215
  H      -4.314320     -2.464572      1.540145
  H      -5.745164     -3.871901     -0.975175
  H      -6.176901     -2.230722     -0.239930
  H       1.862118      0.337002     -5.546549
  H       2.096110     -1.332002     -4.786229
38
Coordinates from ORCA-job honokiol2 E -846.983526192231
  O       1.423500      1.421251      2.367916
  O      -3.716374     -2.252416      2.289944
  C       1.190598     -0.086765      0.469893
  C      -0.101117     -0.644911      0.950826
  C      -2.445322     -1.204964      0.501600
  C      -1.217357     -0.674713      0.109210
  C       2.951282     -0.030100     -1.234232
  C       1.744608     -0.518323     -0.741437
  C       1.887979      0.895449      1.193901
  C      -0.244842     -1.177527      2.238459
  C      -2.550336     -1.732976      1.798609
  C      -3.632957     -1.179564     -0.440905
  C       3.492227     -0.508130     -2.568553
  C       3.626121      0.929317     -0.477515
  C      -1.454434     -1.715730      2.656086
  C       3.100052      1.391838      0.720176
  C      -4.176224     -2.545866     -0.775555
  C       3.022618      0.345279     -3.718360
  C      -5.440749     -2.923799     -0.605364
  C       2.335274     -0.097583     -4.766260
  H      -1.136956     -0.257913     -0.888217
  H       1.214615     -1.279613     -1.303508
  H       0.602420     -1.210675      2.913330
  H      -4.437147     -0.568243     -0.017526
  H      -3.312997     -0.689107     -1.364256
  H       3.194382     -1.544148     -2.744678
  H       4.586529     -0.481278     -2.532168
  H       4.576263      1.319910     -0.824818
  H      -1.555424     -2.139119      3.647670
  H       3.620403      2.144939      1.299104
  H      -3.456962     -3.253751     -1.180275
  H       3.274444      1.401565     -3.653821
  H       0.549308      1.055583      2.567270
  H      -4.328172     -2.451356      1.563502
  H      -5.771829     -3.920567     -0.869658
  H      -6.186221     -2.242522     -0.207254
  H       2.024525      0.569460     -5.561653
  H       2.063631     -1.143724     -4.863597
38
Coordinates from ORCA-job honokiol2 E -846.983599304176
  O       1.430632      1.415198      2.394920
  O      -3.691133     -2.299544      2.266918
  C       1.199268     -0.073573      0.479457
  C      -0.090950     -0.641284      0.953472
  C      -2.437965     -1.189343      0.504006
  C      -1.213292     -0.648937      0.118006
  C       2.960146      0.004679     -1.224700
  C       1.752431     -0.489900     -0.736499
  C       1.896150      0.901410      1.215061
  C      -0.225377     -1.208917      2.226775
  C      -2.532960     -1.756215      1.785598
  C      -3.633402     -1.137070     -0.426488
  C       3.507995     -0.466174     -2.558631
  C       3.633174      0.956976     -0.458223
  C      -1.431179     -1.760532      2.636565
  C       3.106172      1.405276      0.745463
  C      -4.164484     -2.494812     -0.812217
  C       2.939105      0.300791     -3.723648
  C      -5.425845     -2.889718     -0.658699
  C       2.273223     -0.236958     -4.740747
  H      -1.138187     -0.203572     -0.867468
  H       1.221639     -1.243145     -1.308433
  H       0.625672     -1.253017      2.896174
  H      -4.439928     -0.551550      0.027822
  H      -3.329308     -0.605877     -1.332511
  H       3.302832     -1.530965     -2.693280
  H       4.596005     -0.342702     -2.551898
  H       4.580848      1.355164     -0.803090
  H      -1.527311     -2.212415      3.616115
  H       3.622635      2.154751      1.332801
  H      -3.438837     -3.180105     -1.243523
  H       3.097648      1.376803     -3.700077
  H       0.553517      1.054403      2.589052
  H      -4.315781     -2.464476      1.543967
  H      -5.749114     -3.878340     -0.961364
  H      -6.178706     -2.233039     -0.233568
  H       1.888498      0.371349     -5.550900
  H       2.091530     -1.305413     -4.798324
38
Coordinates from ORCA-job honokiol2 E -846.983600154202
  O       1.433674      1.411658      2.400788
  O      -3.688346     -2.304230      2.262293
  C       1.201436     -0.072085      0.481243
  C      -0.088934     -0.640723      0.953784
  C      -2.436235     -1.186771      0.503232
  C      -1.211598     -0.645563      0.118540
  C       2.961964      0.010396     -1.223204
  C       1.754034     -0.485172     -0.735889
  C       1.898861      0.900703      1.219407
  C      -0.222963     -1.212545      2.225181
  C      -2.530819     -1.758006      1.782934
  C      -3.632042     -1.131553     -0.426503
  C       3.509922     -0.457654     -2.558069
  C       3.635366      0.960430     -0.454405
  C      -1.428724     -1.765150      2.633589
  C       3.108716      1.405568      0.750758
  C      -4.161675     -2.488286     -0.817799
  C       2.922820      0.294125     -3.723841
  C      -5.422878     -2.884701     -0.667076
  C       2.260383     -0.259240     -4.734828
  H      -1.136569     -0.197002     -0.865486
  H       1.222461     -1.236105     -1.310076
  H       0.628071     -1.257865      2.894454
  H      -4.439006     -0.548816      0.030639
  H      -3.329231     -0.596075     -1.330452
  H       3.321741     -1.526403     -2.686547
  H       4.595789     -0.316764     -2.557660
  H       4.582664      1.359853     -0.798805
  H      -1.524782     -2.220216      3.611688
  H       3.625155      2.153679      1.339903
  H      -3.435066     -3.171300     -1.251098
  H       3.064451      1.372633     -3.706515
  H       0.556057      1.051704      2.594023
  H      -4.314426     -2.464474      1.539643
  H      -5.745224     -3.872389     -0.973833
  H      -6.176742     -2.230489     -0.239868
  H       1.862040      0.338709     -5.546135
  H       2.095014     -1.330676     -4.786122
38
Coordinates from ORCA-job honokiol2 E -846.983600211099
  O       1.433447      1.412163      2.400306
  O      -3.688444     -2.304033      2.262734
  C       1.201208     -0.071973      0.481048
  C      -0.089097     -0.640593      0.953778
  C      -2.436358     -1.186986      0.503359
  C      -1.211794     -0.645622      0.118601
  C       2.961831      0.010067     -1.223299
  C       1.753826     -0.485271     -0.736020
  C       1.898657      0.900915      1.219079
  C      -0.223096     -1.212222      2.225285
  C      -2.530876     -1.758086      1.783143
  C      -3.632183     -1.131885     -0.426404
  C       3.509808     -0.458258     -2.558063
  C       3.635317      0.960102     -0.454575
  C      -1.428765     -1.764968      2.633772
  C       3.108636      1.405529      0.750453
  C      -4.161866     -2.488631     -0.817578
  C       2.923807      0.294453     -3.723799
  C      -5.423061     -2.885048     -0.666757
  C       2.261088     -0.257955     -4.735130
  H      -1.136880     -0.197183     -0.865491
  H       1.222321     -1.236392     -1.310025
  H       0.627997     -1.257635      2.894487
  H      -4.439138     -0.549068      0.030652
  H      -3.329308     -0.596513     -1.330392
  H       3.320550     -1.526772     -2.686904
  H       4.595819     -0.318452     -2.557256
  H       4.582762      1.359249     -0.798902
  H      -1.524690     -2.219925      3.611930
  H       3.625186      2.153632      1.339505
  H      -3.435284     -3.171680     -1.250870
  H       3.066527      1.372807     -3.706132
  H       0.555772      1.052297      2.593474
  H      -4.314356     -2.464773      1.540021
  H      -5.745400     -3.872756     -0.973433
  H      -6.176875     -2.230759     -0.239592
  H       1.863555      0.340650     -5.546345
  H       2.094717     -1.329218     -4.786775
38
Coordinates from ORCA-job honokiol2 E -846.983600234178
  O       1.433165      1.412614      2.399501
  O      -3.689001     -2.303031      2.263417
  C       1.200862     -0.072074      0.480724
  C      -0.089431     -0.640480      0.953704
  C      -2.436595     -1.187377      0.503368
  C      -1.212030     -0.646067      0.118452
  C       2.961604      0.009180     -1.223506
  C       1.753542     -0.485840     -0.736192
  C       1.898359      0.900983      1.218467
  C      -0.223583     -1.211342      2.225551
  C      -2.531254     -1.757669      1.783495
  C      -3.632277     -1.132861     -0.426657
  C       3.509485     -0.459537     -2.558181
  C       3.635187      0.959347     -0.455011
  C      -1.429251     -1.763971      2.634230
  C       3.108487      1.405258      0.749806
  C      -4.162202     -2.489796     -0.816817
  C       2.926053      0.295535     -3.723698
  C      -5.423411     -2.886002     -0.665445
  C       2.262565     -0.254466     -4.735827
  H      -1.137126     -0.198232     -0.865915
  H       1.222090     -1.237237     -1.309898
  H       0.627467     -1.256608      2.894836
  H      -4.439189     -0.549508      0.029782
  H      -3.329042     -0.598306     -1.331001
  H       3.317660     -1.527465     -2.688002
  H       4.595826     -0.322308     -2.556488
  H       4.582822      1.358099     -0.799290
  H      -1.525145     -2.218328      3.612665
  H       3.625225      2.153387      1.338649
  H      -3.435778     -3.173236     -1.249771
  H       3.071407      1.373516     -3.705116
  H       0.555509      1.052683      2.592710
  H      -4.314416     -2.464997      1.540502
  H      -5.745864     -3.873894     -0.971382
  H      -6.177018     -2.231246     -0.238644
  H       1.866959      0.345773     -5.546765
  H       2.093697     -1.325287     -4.788367
