! B3LYP def2-TZVP TightSCF

%maxcore 5000

%pal
nprocs 20
end

* xyz 0 1
O           0.00869967845445      1.11406471689826      0.00996550894439
  O           0.00846125352042     -1.11411596924689     -0.00989542641316
  O           1.97318737565643     -0.00023518912222     -0.00028760670878
  C          -1.36703015545739      0.74521165208713      0.17443467116584
  C          -1.36727648534335     -0.74494623945491     -0.17387210406671
  C           0.78622160243449     -0.00011368979485     -0.00011906771977
  H          -1.97428730823526      1.34995239763124     -0.49605497357016
  H          -1.66049078885011      0.93661918568593      1.20849056571510
  H          -1.97438660611837     -1.34954562076743      0.49687059862960
  H          -1.66109856606131     -0.93629124391626     -1.20783216597635
*
