48
Coordinates from ORCA-job honokiol2-opt_FEC E -1288.606332689490
  O       1.579879      1.849460      2.175566
  O      -3.685439     -1.696880      2.194341
  C       1.319847      0.229601      0.365595
  C       0.002785     -0.268625      0.840353
  C      -2.361443     -0.732345      0.397597
  C      -1.113548     -0.257569     -0.000363
  C       3.132443      0.091269     -1.275938
  C       1.886554     -0.303254     -0.795707
  C       2.033260      1.227210      1.056456
  C      -0.157411     -0.800007      2.123596
  C      -2.484392     -1.256293      1.691972
  C      -3.556110     -0.643961     -0.530516
  C       3.720235     -0.536705     -2.526380
  C       3.823836      1.065706     -0.557432
  C      -1.383829     -1.296303      2.540647
  C       3.282981      1.628907      0.587938
  C      -4.192396     -1.976002     -0.833676
  C       2.870208     -0.346936     -3.751952
  C      -5.476214     -2.271301     -0.647421
  C       2.391490     -1.325784     -4.510895
  H      -1.012330      0.160657     -0.995399
  H       1.335905     -1.071642     -1.327035
  H       0.688628     -0.841819      2.797863
  H      -4.313247      0.029012     -0.112058
  H      -3.223013     -0.191113     -1.468476
  H       3.888522     -1.607051     -2.369318
  H       4.704358     -0.090404     -2.703988
  H       4.799047      1.394158     -0.899332
  H      -1.497541     -1.726904      3.527622
  H       3.810137      2.400453      1.134318
  H      -3.524960     -2.737888     -1.228544
  H       2.642063      0.684699     -4.009367
  H       0.634101      1.710552      2.335506
  H      -4.262770     -1.977713      1.467921
  H      -5.875043     -3.247918     -0.890985
  H      -6.179580     -1.537582     -0.266021
  H       1.787783     -1.122542     -5.386804
  H       2.591563     -2.368244     -4.286268
  H      -5.024888      0.931663      3.199732
  H      -3.758441     -0.469156      4.721004
  O      -2.365399      1.033485      4.996678
  C      -3.729470      0.589935      4.975516
  C      -4.360435      1.450559      3.886411
  C      -2.111469      1.773395      3.902432
  O      -1.050400      2.201637      3.585966
  O      -3.262979      1.958653      3.181715
  F      -5.063553      2.500705      4.438897
  H      -4.181671      0.770705      5.948085
48
Coordinates from ORCA-job honokiol2-opt_FEC E -1288.606350296208
  O       1.584942      1.845235      2.181747
  O      -3.675055     -1.707809      2.209665
  C       1.322681      0.226654      0.371003
  C       0.006944     -0.272005      0.848268
  C      -2.358550     -0.734274      0.410962
  C      -1.112124     -0.257289      0.011161
  C       3.130968      0.092530     -1.275650
  C       1.886429     -0.303372     -0.793046
  C       2.037162      1.223198      1.061805
  C      -0.148517     -0.808914      2.129625
  C      -2.476290     -1.263993      1.703727
  C      -3.556320     -0.642938     -0.513334
  C       3.715579     -0.532279     -2.529134
  C       3.824022      1.065458     -0.556559
  C      -1.372842     -1.308252      2.548362
  C       3.285538      1.626353      0.591059
  C      -4.190912     -1.974165     -0.822949
  C       2.862476     -0.339340     -3.752073
  C      -5.474095     -2.272435     -0.637024
  C       2.381730     -1.316210     -4.512279
  H      -1.013967      0.164869     -0.982541
  H       1.334559     -1.070682     -1.324669
  H       0.700043     -0.853923      2.800459
  H      -4.313344      0.026079     -0.089227
  H      -3.226820     -0.183896     -1.449641
  H       3.884222     -1.603025     -2.375226
  H       4.699269     -0.085563     -2.708073
  H       4.798317      1.394977     -0.900029
  H      -1.483242     -1.744520      3.533101
  H       3.813558      2.397319      1.137447
  H      -3.522757     -2.732766     -1.222851
  H       2.633745      0.692960     -4.006274
  H       0.639888      1.703256      2.341020
  H      -4.254573     -1.988031      1.484812
  H      -5.871702     -3.248262     -0.885668
  H      -6.178200     -1.541904     -0.250886
  H       1.775775     -1.110675     -5.386099
  H       2.582239     -2.359262     -4.290808
  H      -5.027601      0.960202      3.166484
  H      -3.784586     -0.466545      4.682059
  O      -2.374921      1.017634      4.974040
  C      -3.744121      0.590029      4.944983
  C      -4.361289      1.466321      3.860821
  C      -2.108660      1.765287      3.887870
  O      -1.042255      2.187414      3.581014
  O      -3.255456      1.970623      3.165769
  F      -5.057313      2.517631      4.419115
  H      -4.196918      0.768779      5.917515
48
Coordinates from ORCA-job honokiol2-opt_FEC E -1288.606363049988
  O       1.584345      1.846512      2.182094
  O      -3.676931     -1.704290      2.208359
  C       1.321826      0.227079      0.371410
  C       0.005454     -0.269975      0.848044
  C      -2.359749     -0.731359      0.408775
  C      -1.112921     -0.254730      0.009930
  C       3.130533      0.091819     -1.274782
  C       1.885719     -0.303392     -0.792392
  C       2.036270      1.223497      1.062095
  C      -0.150497     -0.807011      2.129131
  C      -2.477641     -1.260694      1.701723
  C      -3.556936     -0.642098     -0.516668
  C       3.715019     -0.533137     -2.528214
  C       3.823925      1.064400     -0.555418
  C      -1.374924     -1.306095      2.547189
  C       3.285135      1.625741      0.591806
  C      -4.189364     -1.974273     -0.825771
  C       2.862576     -0.338885     -3.751409
  C      -5.472505     -2.273852     -0.641813
  C       2.380999     -1.314973     -4.512091
  H      -1.013522      0.166879     -0.983892
  H       1.333483     -1.070344     -1.324177
  H       0.697779     -0.852016      2.800298
  H      -4.315065      0.026189     -0.094027
  H      -3.227356     -0.183229     -1.453127
  H       3.882555     -1.604105     -2.374645
  H       4.699215     -0.087323     -2.706591
  H       4.798652      1.393284     -0.898263
  H      -1.486980     -1.742522      3.531525
  H       3.813519      2.396354      1.138366
  H      -3.519574     -2.732438     -1.223728
  H       2.635072      0.693744     -4.005368
  H       0.640021      1.700306      2.341533
  H      -4.255184     -1.988281      1.484020
  H      -5.868558     -3.250328     -0.890350
  H      -6.178127     -1.543827     -0.257495
  H       1.775551     -1.108464     -5.386031
  H       2.580227     -2.358327     -4.290878
  H      -5.026736      0.945632      3.175364
  H      -3.783023     -0.463809      4.705655
  O      -2.371137      1.022562      4.976501
  C      -3.740939      0.595695      4.956184
  C      -4.360238      1.459717      3.863688
  C      -2.107260      1.759618      3.882485
  O      -1.041645      2.180052      3.570241
  O      -3.255599      1.958698      3.161995
  F      -5.057625      2.515431      4.410689
  H      -4.190184      0.787048      5.927881
48
Coordinates from ORCA-job honokiol2-opt_FEC E -1288.606351512270
  O       1.593565      1.827380      2.195360
  O      -3.658197     -1.747857      2.213028
  C       1.325923      0.217189      0.374820
  C       0.012416     -0.286043      0.852552
  C      -2.352974     -0.749640      0.417610
  C      -1.109398     -0.264427      0.019091
  C       3.129704      0.094507     -1.278092
  C       1.886752     -0.304680     -0.794405
  C       2.041423      1.209671      1.069924
  C      -0.135263     -0.839335      2.127493
  C      -2.462011     -1.294446      1.704669
  C      -3.554856     -0.657353     -0.501277
  C       3.710476     -0.521179     -2.537773
  C       3.824931      1.062232     -0.553809
  C      -1.355910     -1.347456      2.545164
  C       3.289143      1.614981      0.598881
  C      -4.180535     -1.990052     -0.820490
  C       2.854708     -0.317230     -3.757064
  C      -5.460998     -2.299197     -0.633970
  C       2.370373     -1.287262     -4.523714
  H      -1.014951      0.168466     -0.970334
  H       1.333461     -1.068546     -1.329540
  H       0.716585     -0.889602      2.793744
  H      -4.314736      0.002139     -0.068594
  H      -3.232536     -0.186914     -1.434639
  H       3.878001     -1.593361     -2.392879
  H       4.694360     -0.074388     -2.715449
  H       4.798726      1.393841     -0.896709
  H      -1.464134     -1.796439      3.524123
  H       3.819105      2.381814      1.149247
  H      -3.507846     -2.740117     -1.228790
  H       2.627068      0.717411     -4.002563
  H       0.650052      1.676816      2.357147
  H      -4.236598     -2.031877      1.488867
  H      -5.852324     -3.275415     -0.890858
  H      -6.169213     -1.577496     -0.238885
  H       1.762509     -1.073770     -5.394291
  H       2.569579     -2.332382     -4.310979
  H      -5.050426      1.051862      3.158533
  H      -3.858403     -0.421545      4.668382
  O      -2.396748      1.011724      4.961252
  C      -3.780427      0.631767      4.935642
  C      -4.371308      1.533472      3.858032
  C      -2.109518      1.762220      3.882318
  O      -1.030655      2.154928      3.579085
  O      -3.250286      2.013615      3.167868
  F      -5.039994      2.598342      4.421044
  H      -4.220962      0.824112      5.911078
48
Coordinates from ORCA-job honokiol2-opt_FEC E -1288.606383417465
  O       1.590463      1.837178      2.187692
  O      -3.669027     -1.710299      2.216343
  C       1.326182      0.221635      0.372190
  C       0.011185     -0.278779      0.849600
  C      -2.355697     -0.734934      0.415005
  C      -1.109345     -0.258423      0.014467
  C       3.132339      0.093490     -1.277672
  C       1.889121     -0.304832     -0.793949
  C       2.040197      1.217206      1.064330
  C      -0.140631     -0.822178      2.128414
  C      -2.469190     -1.268783      1.706040
  C      -3.556182     -0.643620     -0.505407
  C       3.715382     -0.527064     -2.533916
  C       3.825462      1.065489     -0.556999
  C      -1.364606     -1.320619      2.548642
  C       3.287894      1.622284      0.592894
  C      -4.187011     -1.976044     -0.815830
  C       2.861189     -0.328864     -3.755257
  C      -5.468626     -2.279085     -0.627249
  C       2.378630     -1.302466     -4.518499
  H      -1.011932      0.168134     -0.977404
  H       1.337064     -1.071235     -1.326712
  H       0.709908     -0.870140      2.796563
  H      -4.313767      0.022116     -0.077723
  H      -3.231061     -0.180926     -1.441627
  H       3.883491     -1.598510     -2.384312
  H       4.699195     -0.080285     -2.712067
  H       4.799264      1.396770     -0.900215
  H      -1.477227     -1.760422      3.531349
  H       3.816571      2.391684      1.140901
  H      -3.517174     -2.731378     -1.219124
  H       2.633132      0.704571     -4.005415
  H       0.648114      1.680092      2.351528
  H      -4.247638     -1.997520      1.493583
  H      -5.863671     -3.255500     -0.877663
  H      -6.174014     -1.552174     -0.236711
  H       1.771817     -1.093072     -5.390803
  H       2.578322     -2.346534     -4.301112
  H      -5.040243      0.979701      3.160421
  H      -3.825959     -0.450621      4.694557
  O      -2.387161      1.009574      4.964229
  C      -3.764650      0.607985      4.944767
  C      -4.370005      1.483321      3.853066
  C      -2.112241      1.748297      3.874050
  O      -1.038877      2.149350      3.562492
  O      -3.256619      1.971192      3.156090
  F      -5.056548      2.545642      4.399121
  H      -4.208163      0.809069      5.917182
48
Coordinates from ORCA-job honokiol2-opt_FEC E -1288.606391721603
  O       1.588310      1.839503      2.183629
  O      -3.671489     -1.704580      2.215112
  C       1.326845      0.221103      0.371031
  C       0.011647     -0.279644      0.848219
  C      -2.355785     -0.733449      0.413838
  C      -1.108780     -0.258690      0.013077
  C       3.133577      0.092718     -1.278115
  C       1.890619     -0.306270     -0.794287
  C       2.039871      1.218231      1.062172
  C      -0.141286     -0.822020      2.127479
  C      -2.470802     -1.265942      1.705385
  C      -3.555828     -0.639346     -0.506807
  C       3.717600     -0.528866     -2.533419
  C       3.825424      1.066478     -0.558681
  C      -1.366185     -1.318428      2.547914
  C       3.287050      1.624359      0.590306
  C      -4.188332     -1.970582     -0.819785
  C       2.863872     -0.332515     -3.755392
  C      -5.470369     -2.272428     -0.631974
  C       2.382271     -1.307241     -4.517808
  H      -1.010911      0.167387     -0.978991
  H       1.339412     -1.073829     -1.326287
  H       0.709174     -0.871158      2.795649
  H      -4.312804      0.026786     -0.078250
  H      -3.229683     -0.175712     -1.442120
  H       3.886266     -1.600039     -2.382559
  H       4.701226     -0.081703     -2.711610
  H       4.798729      1.398583     -0.902460
  H      -1.479292     -1.756938      3.531203
  H       3.814521      2.395380      1.137176
  H      -3.519337     -2.726095     -1.224107
  H       2.635306      0.700511     -4.006780
  H       0.646275      1.682281      2.348343
  H      -4.250179     -1.991030      1.492043
  H      -5.866430     -3.248102     -0.883663
  H      -6.175107     -1.545124     -0.240955
  H       1.775757     -1.099168     -5.390639
  H       2.582521     -2.350944     -4.299199
  H      -5.039098      0.951220      3.170793
  H      -3.811702     -0.452379      4.719493
  O      -2.385281      1.022507      4.972575
  C      -3.759280      0.609388      4.958126
  C      -4.372443      1.467919      3.857169
  C      -2.116853      1.750121      3.873302
  O      -1.046607      2.154043      3.555101
  O      -3.263608      1.956047      3.153605
  F      -5.066261      2.531257      4.392673
  H      -4.204885      0.816882      5.928327
