58
Coordinates from ORCA-job honokiol3_EC2 E -1531.858707301475
  O       1.923821      1.132280      2.837479
  O      -3.651765     -1.886299      2.123898
  C       1.422104      0.140646      0.663283
  C       0.093000     -0.379784      1.054368
  C      -2.261787     -0.722704      0.508269
  C      -0.998444     -0.237558      0.197025
  C       3.126089      0.357416     -1.082351
  C       1.874720     -0.057155     -0.644847
  C       2.268810      0.819776      1.557567
  C      -0.107009     -1.064503      2.255348
  C      -2.427699     -1.410186      1.715659
  C      -3.423523     -0.478556     -0.427645
  C       3.582526      0.103872     -2.504537
  C       3.960709      0.984821     -0.159871
  C      -1.351602     -1.582092      2.577474
  C       3.538111      1.213617      1.139846
  C      -4.059467     -1.749760     -0.916410
  C       2.484022      0.224067     -3.518376
  C      -5.338651     -2.075740     -0.754413
  C       2.114478     -0.742682     -4.348443
  H      -0.878261      0.299251     -0.732433
  H       1.224495     -0.571306     -1.340530
  H       0.719666     -1.206127      2.937647
  H      -4.183698      0.141044      0.060423
  H      -3.053874      0.094499     -1.281151
  H       4.036978     -0.890027     -2.578024
  H       4.374068      0.822942     -2.741015
  H       4.947803      1.313124     -0.464496
  H      -1.502159     -2.131830      3.497372
  H       4.171274      1.729120      1.850408
  H      -3.391627     -2.444088     -1.418918
  H       1.955152      1.171998     -3.535290
  H       0.963631      1.266084      2.923878
  H      -4.197546     -2.080916      1.346090
  H      -5.739159     -3.010338     -1.125313
  H      -6.036281     -1.403244     -0.265099
  H       1.308275     -0.600249     -5.056779
  H       2.604542     -1.710812     -4.347191
  H      -4.435279      0.629288      2.489045
  H      -3.417061     -0.451756      4.323445
  O      -2.022505      1.063324      4.403899
  C      -3.394423      0.631495      4.416236
  C      -4.004699      1.334402      3.195154
  C      -1.767934      1.772276      3.294921
  O      -0.685287      2.190009      2.994882
  O      -2.878564      1.973991      2.570575
  H      -4.731559      2.102537      3.455227
  H      -3.838406      0.939067      5.360806
  H       1.904368      4.755595     -0.784244
  H       2.208746      3.121277     -0.134999
  C       1.476656      3.770571     -0.610980
  H      -0.326751      4.792815      0.116415
  C       0.145806      3.809678      0.143647
  H       0.211193      3.456210      1.168501
  O       1.115542      3.201280     -1.883580
  O      -0.675052      2.895818     -0.603506
  C      -0.092842      2.610131     -1.785548
  O      -0.584955      1.920821     -2.627564
58
Coordinates from ORCA-job honokiol3_EC2 E -1531.858712549155
  O       1.922781      1.132511      2.837417
  O      -3.651797     -1.885842      2.123641
  C       1.421991      0.141314      0.663012
  C       0.092751     -0.378951      1.053912
  C      -2.262178     -0.721403      0.508316
  C      -0.998841     -0.236261      0.196872
  C       3.126856      0.357925     -1.081829
  C       1.875221     -0.056573     -0.644859
  C       2.268216      0.820513      1.557639
  C      -0.107095     -1.063814      2.254846
  C      -2.427871     -1.409160      1.715553
  C      -3.424176     -0.477062     -0.427142
  C       3.583562      0.103965     -2.503903
  C       3.961057      0.985622     -0.159097
  C      -1.351658     -1.581366      2.577125
  C       3.537634      1.214500      1.140397
  C      -4.061694     -1.748143     -0.914154
  C       2.484782      0.222588     -3.517676
  C      -5.341092     -2.072617     -0.750869
  C       2.115281     -0.745324     -4.346398
  H      -0.878753      0.300326     -0.732763
  H       1.225300     -0.570748     -1.340807
  H       0.719757     -1.205749      2.936861
  H      -4.183469      0.143771      0.060740
  H      -3.054505      0.094773     -1.281463
  H       4.038734     -0.889640     -2.576826
  H       4.374486      0.823505     -2.740936
  H       4.948308      1.313883     -0.463222
  H      -1.502018     -2.131447      3.496851
  H       4.169988      1.730047      1.851506
  H      -3.394925     -2.443686     -1.416395
  H       1.955634      1.170348     -3.535636
  H       0.962573      1.266621      2.923693
  H      -4.197401     -2.080739      1.345785
  H      -5.742863     -3.007164     -1.120535
  H      -6.037645     -1.398907     -0.261691
  H       1.308804     -0.604035     -5.054659
  H       2.605664     -1.713287     -4.344107
  H      -4.433449      0.626174      2.485640
  H      -3.413878     -0.455777      4.319569
  O      -2.021331      1.061134      4.402260
  C      -3.392510      0.627437      4.413396
  C      -4.003027      1.330614      3.192508
  C      -1.767036      1.771069      3.293858
  O      -0.684725      2.190345      2.994544
  O      -2.877304      1.971354      2.568811
  H      -4.730579      2.098013      3.452903
  H      -3.837708      0.933700      5.357806
  H       1.904217      4.756513     -0.785561
  H       2.208547      3.122531     -0.135530
  C       1.476323      3.771727     -0.611493
  H      -0.327460      4.793578      0.116425
  C       0.145809      3.810734      0.143417
  H       0.210701      3.456732      1.168074
  O       1.115060      3.202007     -1.883858
  O      -0.675307      2.896764     -0.603507
  C      -0.093471      2.610848     -1.785607
  O      -0.585555      1.921639     -2.627617
58
Coordinates from ORCA-job honokiol3_EC2 E -1531.858686096291
  O       1.913298      1.129270      2.836461
  O      -3.646655     -1.912386      2.106540
  C       1.419719      0.141821      0.658898
  C       0.090867     -0.381759      1.046613
  C      -2.263633     -0.725566      0.501558
  C      -1.001649     -0.235045      0.191877
  C       3.131162      0.361332     -1.079519
  C       1.877819     -0.054017     -0.647306
  C       2.261299      0.821761      1.557176
  C      -0.105669     -1.075933      2.242771
  C      -2.425435     -1.424692      1.702682
  C      -3.427844     -0.477604     -0.429747
  C       3.590526      0.106348     -2.500911
  C       3.961698      0.989959     -0.153732
  C      -1.347977     -1.600811      2.561707
  C       3.531590      1.217751      1.144173
  C      -4.069969     -1.746478     -0.916465
  C       2.489992      0.213963     -3.514337
  C      -5.349617     -2.067720     -0.748833
  C       2.121230     -0.761905     -4.333972
  H      -0.882352      0.302768     -0.737390
  H       1.230912     -0.568288     -1.345935
  H       0.722804     -1.221716      2.921957
  H      -4.184291      0.144250      0.061389
  H      -3.059885      0.094765     -1.284480
  H       4.051674     -0.884699     -2.570732
  H       4.376527      0.830137     -2.740900
  H       4.950216      1.318461     -0.453286
  H      -1.495069     -2.160320      3.476270
  H       4.157650      1.733039      1.860220
  H      -3.406916     -2.442937     -1.422314
  H       1.958508      1.160304     -3.539268
  H       0.953493      1.268852      2.924524
  H      -4.190731     -2.105332      1.327107
  H      -5.755461     -3.000389     -1.118827
  H      -6.042320     -1.393127     -0.255458
  H       1.312874     -0.628669     -5.041702
  H       2.614202     -1.728480     -4.324697
  H      -4.437706      0.645095      2.496512
  H      -3.406559     -0.448268      4.322933
  O      -2.012771      1.068254      4.408121
  C      -3.382892      0.634621      4.421011
  C      -3.996303      1.342328      3.203668
  C      -1.760950      1.780293      3.300537
  O      -0.679722      2.202735      3.000090
  O      -2.871228      1.977970      2.576614
  H      -4.719215      2.112634      3.469165
  H      -3.827556      0.938567      5.366341
  H       1.901590      4.762350     -0.793124
  H       2.205072      3.130312     -0.138671
  C       1.471943      3.779373     -0.613840
  H      -0.334763      4.798863      0.115772
  C       0.143652      3.818249      0.142571
  H       0.203977      3.462578      1.166644
  O       1.109465      3.207956     -1.885027
  O      -0.678927      2.902504     -0.602555
  C      -0.099788      2.616021     -1.785445
  O      -0.591191      1.928086     -2.628198
58
Coordinates from ORCA-job honokiol3_EC2 E -1531.858724431239
  O       1.918163      1.130953      2.837351
  O      -3.651892     -1.888301      2.122024
  C       1.420237      0.142443      0.661274
  C       0.090898     -0.378560      1.050894
  C      -2.264137     -0.721308      0.506333
  C      -1.001398     -0.233841      0.195327
  C       3.128479      0.359643     -1.080270
  C       1.875854     -0.054912     -0.645620
  C       2.264451      0.821784      1.557647
  C      -0.107288     -1.066819      2.250179
  C      -2.428360     -1.411904      1.712248
  C      -3.426888     -0.475144     -0.427753
  C       3.586630      0.104186     -2.501790
  C       3.960903      0.988173     -0.156348
  C      -1.351211     -1.585965      2.572268
  C       3.534168      1.216963      1.142227
  C      -4.064660     -1.744670     -0.918703
  C       2.486643      0.215004     -3.515221
  C      -5.344205     -2.069233     -0.756492
  C       2.117270     -0.758688     -4.337193
  H      -0.882062      0.302449     -0.734683
  H       1.227338     -0.569137     -1.342790
  H       0.720447     -1.210067      2.930832
  H      -4.185989      0.144487      0.061984
  H      -3.057848      0.099163     -1.280699
  H       4.045855     -0.887739     -2.572169
  H       4.374275      0.826471     -2.741254
  H       4.948850      1.316324     -0.458305
  H      -1.500320     -2.138420      3.490794
  H       4.163253      1.732699      1.855975
  H      -3.398246     -2.438632     -1.423604
  H       1.956180      1.161900     -3.538304
  H       0.958282      1.268429      2.924682
  H      -4.199675     -2.081075      1.345091
  H      -5.746417     -3.002232     -1.129615
  H      -6.040350     -1.397154     -0.264554
  H       1.309496     -0.623056     -5.045099
  H       2.609129     -1.725863     -4.329628
  H      -4.431179      0.628367      2.488769
  H      -3.401944     -0.459646      4.317062
  O      -2.013423      1.061200      4.404294
  C      -3.382737      0.623299      4.414815
  C      -3.996020      1.328997      3.196539
  C      -1.761436      1.773532      3.296890
  O      -0.680504      2.197402      2.998132
  O      -2.871690      1.969719      2.571663
  H      -4.722640      2.096298      3.460546
  H      -3.829345      0.925547      5.359823
  H       1.902290      4.760116     -0.791894
  H       2.206094      3.127562     -0.138530
  C       1.473140      3.776624     -0.613828
  H      -0.332176      4.797316      0.115991
  C       0.144288      3.815938      0.142600
  H       0.206764      3.460538      1.166796
  O       1.110548      3.205530     -1.885235
  O      -0.678189      2.900868     -0.602911
  C      -0.098469      2.614235     -1.785557
  O      -0.590510      1.925635     -2.627771
58
Coordinates from ORCA-job honokiol3_EC2 E -1531.858726475918
  O       1.919887      1.130227      2.838203
  O      -3.652693     -1.889847      2.118744
  C       1.420096      0.142495      0.662034
  C       0.090498     -0.377885      1.051664
  C      -2.264173     -0.720932      0.505692
  C      -1.001232     -0.233884      0.195142
  C       3.127315      0.359383     -1.080417
  C       1.874853     -0.054792     -0.645212
  C       2.265414      0.820950      1.558120
  C      -0.108792     -1.064922      2.251516
  C      -2.429296     -1.410932      1.711639
  C      -3.426253     -0.476614     -0.429596
  C       3.585414      0.104291     -2.501933
  C       3.960418      0.987238     -0.156816
  C      -1.352956     -1.583973      2.572925
  C       3.534979      1.215878      1.142045
  C      -4.064275     -1.747449     -0.916549
  C       2.486052      0.216802     -3.515718
  C      -5.343790     -2.071366     -0.753049
  C       2.116506     -0.755751     -4.338965
  H      -0.881555      0.302283     -0.734859
  H       1.225717     -0.568571     -1.342156
  H       0.718385     -1.207694      2.932939
  H      -4.185340      0.144558      0.058212
  H      -3.056650      0.095036     -1.284094
  H       4.043961     -0.887916     -2.572755
  H       4.373779      0.826084     -2.740591
  H       4.948193      1.315260     -0.459469
  H      -1.502710     -2.136323      3.491402
  H       4.165354      1.731368      1.855067
  H      -3.397914     -2.443231     -1.418991
  H       1.956185      1.164030     -3.537994
  H       0.960127      1.267766      2.925298
  H      -4.198295     -2.083449      1.340584
  H      -5.746086     -3.005634     -1.122848
  H      -6.039901     -1.397454     -0.263523
  H       1.309239     -0.618841     -5.047195
  H       2.607742     -1.723255     -4.332154
  H      -4.430698      0.628834      2.488059
  H      -3.402632     -0.458836      4.315956
  O      -2.014117      1.061749      4.403868
  C      -3.383782      0.624039      4.413866
  C      -3.996533      1.330156      3.195756
  C      -1.761499      1.773852      3.296462
  O      -0.680330      2.197345      2.998367
  O      -2.871703      1.970900      2.570973
  H      -4.722961      2.097611      3.459720
  H      -3.830242      0.925880      5.359086
  H       1.903592      4.759481     -0.789734
  H       2.206916      3.126380     -0.137530
  C       1.474300      3.775830     -0.612700
  H      -0.330344      4.797398      0.116645
  C       0.144958      3.815548      0.143293
  H       0.207886      3.460313      1.167597
  O       1.111757      3.205691     -1.884612
  O      -0.677428      2.901012     -0.602882
  C      -0.097208      2.614858     -1.785408
  O      -0.589418      1.926452     -2.627894
58
Coordinates from ORCA-job honokiol3_EC2 E -1531.858729137445
  O       1.920059      1.129194      2.838944
  O      -3.652871     -1.890897      2.118240
  C       1.419603      0.142689      0.662296
  C       0.090005     -0.377778      1.051759
  C      -2.264502     -0.721416      0.505444
  C      -1.001657     -0.233940      0.195125
  C       3.126728      0.359691     -1.080197
  C       1.874220     -0.054312     -0.645045
  C       2.265171      0.820637      1.558543
  C      -0.109234     -1.065196      2.251413
  C      -2.429579     -1.411778      1.711190
  C      -3.426562     -0.476930     -0.429846
  C       3.584998      0.104482     -2.501639
  C       3.959907      0.987364     -0.156568
  C      -1.353234     -1.584797      2.572499
  C       3.534631      1.215783      1.142353
  C      -4.064095     -1.747655     -0.917729
  C       2.485550      0.215795     -3.515415
  C      -5.343570     -2.072045     -0.754810
  C       2.115898     -0.757664     -4.337539
  H      -0.882162      0.302041     -0.735035
  H       1.224996     -0.567870     -1.342062
  H       0.717932     -1.207941      2.932841
  H      -4.185934      0.143706      0.058221
  H      -3.057034      0.095368     -1.283946
  H       4.044352     -0.887377     -2.572093
  H       4.372794      0.826809     -2.740537
  H       4.947658      1.315414     -0.459270
  H      -1.502890     -2.137524      3.490765
  H       4.165055      1.731134      1.855393
  H      -3.397389     -2.442939     -1.420422
  H       1.955626      1.162970     -3.538554
  H       0.960476      1.267882      2.926187
  H      -4.198624     -2.084079      1.340082
  H      -5.745475     -3.006214     -1.125289
  H      -6.040029     -1.398623     -0.265101
  H       1.308496     -0.621583     -5.045779
  H       2.607231     -1.725111     -4.329804
  H      -4.429381      0.630295      2.487732
  H      -3.399925     -0.458713      4.314099
  O      -2.012625      1.062833      4.404135
  C      -3.382008      0.624058      4.413181
  C      -3.994839      1.331097      3.195711
  C      -1.759944      1.775347      3.297002
  O      -0.678932      2.199831      2.999696
  O      -2.869913      1.971822      2.570972
  H      -4.720844      2.098692      3.460387
  H      -3.828973      0.924476      5.358607
  H       1.903496      4.759780     -0.789828
  H       2.206541      3.126691     -0.137674
  C       1.473879      3.776326     -0.612494
  H      -0.330582      4.798219      0.116996
  C       0.144693      3.816372      0.143685
  H       0.207350      3.461062      1.167962
  O       1.110873      3.206486     -1.884469
  O      -0.677990      2.901831     -0.602386
  C      -0.098126      2.615883     -1.785040
  O      -0.590579      1.927747     -2.627658
