58
Coordinates from ORCA-job honokiol3_EC2 E -1531.858729137445
  O           1.92005879769967      1.12919415605373      2.83894388138867
  O          -3.65287130469669     -1.89089658297759      2.11824038631035
  C           1.41960264228874      0.14268856322255      0.66229643035737
  C           0.09000480152032     -0.37777763881988      1.05175869901262
  C          -2.26450195522677     -0.72141606449420      0.50544384935216
  C          -1.00165664862298     -0.23393963161325      0.19512489153234
  C           3.12672821990833      0.35969071117684     -1.08019717934480
  C           1.87421996599379     -0.05431175355479     -0.64504543040566
  C           2.26517063333677      0.82063715456154      1.55854303071934
  C          -0.10923396070430     -1.06519574296960      2.25141315210919
  C          -2.42957885219454     -1.41177772168223      1.71118952769080
  C          -3.42656225614046     -0.47692953433058     -0.42984557362409
  C           3.58499763997322      0.10448195328867     -2.50163860129998
  C           3.95990706376438      0.98736385402919     -0.15656815860859
  C          -1.35323382565401     -1.58479690257972      2.57249911855616
  C           3.53463062059717      1.21578256777127      1.14235271576449
  C          -4.06409472278639     -1.74765465150798     -0.91772872185276
  C           2.48554984242480      0.21579505686876     -3.51541532586207
  C          -5.34356963247633     -2.07204506779782     -0.75480978569853
  C           2.11589775660508     -0.75766386711287     -4.33753941903001
  H          -0.88216186787038      0.30204059968599     -0.73503511021189
  H           1.22499560291659     -0.56786958379372     -1.34206244902109
  H           0.71793235878639     -1.20794114927196      2.93284106155126
  H          -4.18593365769581      0.14370629023317      0.05822103052287
  H          -3.05703365276099      0.09536795874168     -1.28394561765637
  H           4.04435206964289     -0.88737679408017     -2.57209251475700
  H           4.37279402950755      0.82680889911812     -2.74053708256006
  H           4.94765849502197      1.31541357793849     -0.45926978139335
  H          -1.50288996175311     -2.13752396592051      3.49076515402946
  H           4.16505484140901      1.73113416435308      1.85539268828556
  H          -3.39738931637016     -2.44293874312716     -1.42042205724923
  H           1.95562588426031      1.16297017934154     -3.53855358600114
  H           0.96047647983363      1.26788232387685      2.92618665648344
  H          -4.19862376551288     -2.08407854578603      1.34008248184728
  H          -5.74547469019500     -3.00621381699034     -1.12528886720683
  H          -6.04002889213623     -1.39862274138867     -0.26510136538794
  H           1.30849570025405     -0.62158279645593     -5.04577853281693
  H           2.60723140256093     -1.72511106489739     -4.32980397058067
  H          -4.42938087588241      0.63029529341170      2.48773162695336
  H          -3.39992474777029     -0.45871312064405      4.31409875721882
  O          -2.01262473892889      1.06283343499798      4.40413516189576
  C          -3.38200815880731      0.62405847070042      4.41318099407674
  C          -3.99483900485003      1.33109679809682      3.19571106752916
  C          -1.75994431659768      1.77534673415776      3.29700202859829
  O          -0.67893238750585      2.19983057975614      2.99969636248051
  O          -2.86991349967196      1.97182180526577      2.57097209304834
  H          -4.72084436651406      2.09869173714002      3.46038721570361
  H          -3.82897269267309      0.92447602047751      5.35860700392951
  H           1.90349639960057      4.75977993752590     -0.78982772381338
  H           2.20654132809315      3.12669124268380     -0.13767365040059
  C           1.47387887945080      3.77632555052571     -0.61249357288765
  H          -0.33058242365286      4.79821876991851      0.11699552855710
  C           0.14469271198643      3.81637181933913      0.14368454411094
  H           0.20734965423749      3.46106204804915      1.16796197491700
  O           1.11087303977256      3.20648589566802     -1.88446852586500
  O          -0.67799037878407      2.90183087007115     -0.60238561004713
  C          -0.09812588011198      2.61588330049862     -1.78503980856194
  O          -0.59057923779904      1.92774708145069     -2.62765770678783
