15
Coordinates from ORCA-job EMC E -382.890588917049
  O       0.680300     -0.453700      0.000500
  O      -1.499900     -0.779800      0.000300
  O      -0.709300      1.385400      0.000100
  C       1.824500      0.406500     -0.000300
  C       3.078600     -0.441400     -0.000300
  C      -0.528300      0.175200      0.000600
  C      -2.845800     -0.292200     -0.000700
  H       1.805200      1.039000     -0.894900
  H       1.805700      1.039800      0.893700
  H       3.974600      0.185700     -0.000900
  H       3.103400     -1.092900      0.879500
  H       3.102900     -1.093600     -0.879500
  H      -3.034300      0.301000      0.899200
  H      -3.519300     -1.153300     -0.000800
  H      -3.033200      0.300500     -0.901200
15
Coordinates from ORCA-job EMC E -382.893220003386
  O       0.665677     -0.441872     -0.000567
  O      -1.473530     -0.771074      0.000172
  O      -0.709837      1.369427     -0.002342
  C       1.820676      0.419748     -0.001084
  C       3.056966     -0.453551      0.000595
  C      -0.524339      0.175247     -0.001943
  C      -2.826058     -0.288654      0.000516
  H       1.797590      1.051961     -0.890553
  H       1.796710      1.054186      0.886772
  H       3.952254      0.168072      0.006013
  H       3.076132     -1.101763      0.880056
  H       3.083181     -1.094114     -0.884268
  H      -3.019960      0.303234      0.894840
  H      -3.469048     -1.165314      0.002299
  H      -3.021315      0.300667     -0.895207
15
Coordinates from ORCA-job EMC E -382.893586057529
  O       0.661328     -0.432068      0.005457
  O      -1.468061     -0.763206      0.005022
  O      -0.711098      1.369170     -0.001268
  C       1.828780      0.426645     -0.000303
  C       3.052339     -0.462855     -0.001191
  C      -0.523297      0.177636      0.006718
  C      -2.828479     -0.289097     -0.001304
  H       1.797299      1.058576     -0.888270
  H       1.802215      1.063854      0.884068
  H       3.949693      0.156861      0.002544
  H       3.071612     -1.105117      0.881196
  H       3.075419     -1.097714     -0.888907
  H      -3.029906      0.303685      0.889518
  H      -3.449755     -1.180038     -0.001802
  H      -3.022987      0.299868     -0.896179
15
Coordinates from ORCA-job EMC E -382.893545738738
  O       0.660461     -0.429288     -0.019027
  O      -1.468462     -0.760584     -0.013701
  O      -0.711499      1.370024     -0.009572
  C       1.834957      0.428808     -0.003529
  C       3.051823     -0.467321      0.005669
  C      -0.522811      0.176838     -0.030259
  C      -2.832533     -0.289060      0.007343
  H       1.808577      1.067024     -0.886903
  H       1.790355      1.060817      0.883578
  H       3.949454      0.153135      0.024541
  H       3.060045     -1.110441      0.886959
  H       3.086320     -1.093393     -0.887258
  H      -3.015277      0.304650      0.901367
  H      -3.442947     -1.187100      0.018280
  H      -3.043362      0.302091     -0.882188
15
Coordinates from ORCA-job EMC E -382.893678797168
  O       0.661430     -0.431387      0.002638
  O      -1.470947     -0.761865      0.002651
  O      -0.711193      1.370217     -0.002100
  C       1.836880      0.427873     -0.000157
  C       3.053412     -0.467218     -0.000837
  C      -0.522591      0.174599      0.002325
  C      -2.835117     -0.288568     -0.000592
  H       1.796435      1.061577     -0.886498
  H       1.799034      1.064075      0.884511
  H       3.950546      0.154885      0.002824
  H       3.073769     -1.103433      0.885266
  H       3.077373     -1.098068     -0.890694
  H      -3.030706      0.306932      0.889763
  H      -3.445515     -1.186792      0.000170
  H      -3.027709      0.303373     -0.893970
15
Coordinates from ORCA-job EMC E -382.893685888590
  O       0.661780     -0.434532      0.000775
  O      -1.471397     -0.764097      0.000971
  O      -0.710472      1.368465     -0.002075
  C       1.834631      0.426380     -0.000350
  C       3.053950     -0.464956     -0.000331
  C      -0.522369      0.172959     -0.000065
  C      -2.833873     -0.287860     -0.000172
  H       1.795020      1.060120     -0.886781
  H       1.795877      1.061432      0.885184
  H       3.950380      0.157839      0.002877
  H       3.075014     -1.101488      0.885774
  H       3.078494     -1.097424     -0.889241
  H      -3.026636      0.307367      0.891083
  H      -3.449246     -1.182771      0.000933
  H      -3.026054      0.304765     -0.893282
15
Coordinates from ORCA-job EMC E -382.893686721992
  O       0.661749     -0.435361      0.000305
  O      -1.471603     -0.764650      0.000426
  O      -0.710385      1.367824     -0.001741
  C       1.834693      0.426209     -0.000321
  C       3.054131     -0.464654     -0.000245
  C      -0.522230      0.172234     -0.000531
  C      -2.833983     -0.287576     -0.000192
  H       1.794323      1.059978     -0.886659
  H       1.794781      1.060750      0.885489
  H       3.950435      0.158347      0.001994
  H       3.075948     -1.100303      0.886474
  H       3.078380     -1.097705     -0.888739
  H      -3.025694      0.307610      0.891304
  H      -3.449858     -1.182110      0.000777
  H      -3.025587      0.305607     -0.893044
15
Coordinates from ORCA-job EMC E -382.893687006938
  O       0.661715     -0.435910      0.000138
  O      -1.471715     -0.765055      0.000085
  O      -0.710384      1.367392     -0.001176
  C       1.834818      0.426227     -0.000236
  C       3.054262     -0.464406     -0.000231
  C      -0.522099      0.171843     -0.000446
  C      -2.834083     -0.287398     -0.000363
  H       1.793792      1.059921     -0.886545
  H       1.794120      1.060265      0.885845
  H       3.950620      0.158522      0.000552
  H       3.076990     -1.099051      0.887185
  H       3.077787     -1.098321     -0.888129
  H      -3.025249      0.307565      0.891374
  H      -3.450355     -1.181640      0.000255
  H      -3.025118      0.306245     -0.893008
15
Coordinates from ORCA-job EMC E -382.893687036064
  O       0.661704     -0.435846      0.000128
  O      -1.471683     -0.765053      0.000023
  O      -0.710451      1.367413     -0.001009
  C       1.834854      0.426325     -0.000221
  C       3.054233     -0.464416     -0.000214
  C      -0.522112      0.171891     -0.000361
  C      -2.834038     -0.287410     -0.000414
  H       1.793857      1.059981     -0.886551
  H       1.794157      1.060305      0.885896
  H       3.950676      0.158393      0.000162
  H       3.077126     -1.098851      0.887344
  H       3.077506     -1.098572     -0.887949
  H      -3.025314      0.307389      0.891412
  H      -3.450302     -1.181659      0.000057
  H      -3.025113      0.306311     -0.893003
