! OPT B3LYP def2-TZVP TightSCF

%maxcore 5000

%pal
nprocs 20
end

* xyz 0 1
O           1.05346500653278      1.48840146399471      2.34492505679218
  O          -3.84774285879652     -2.49204764814425      1.79954590433012
  C           1.04676702317788     -0.00207786424045      0.40961089352861
  C          -0.24373231261313     -0.64781704094021      0.76500728321394
  C          -2.53339888365915     -1.26790242478875      0.15808061332907
  C          -1.31400529537794     -0.65954800134277     -0.13246316655348
  C           2.95793886892146      0.14016434339676     -1.11621857852708
  C           1.72457251576715     -0.39184387765122     -0.74855484579376
  C           1.62663615445144      0.99563397707774      1.21639437576577
  C          -0.41745049754751     -1.29428213844687      1.99210372963733
  C          -2.67030133371649     -1.90706339244914      1.39856368903759
  C          -3.68691437530110     -1.19816734571991     -0.82291686186715
  C           3.66249754406118     -0.32752908230165     -2.37603523257237
  C           3.51982296327623      1.10593748091839     -0.28242010261886
  C          -1.61274690026596     -1.92500480155017      2.30129325024987
  C           2.86376038370966      1.53163960067732      0.86242203899488
  C          -4.19172221619656     -2.54581426665927     -1.26980036236090
  C           2.92089960092536      0.01780033342633     -3.63809202546816
  C          -5.45360662285928     -2.95830122006345     -1.18353304023077
  C           2.52251505017108     -0.85513247030207     -4.55605983792434
  H          -1.20198335598888     -0.15143823469159     -1.08365409709205
  H           1.27391000424752     -1.15788984880753     -1.36998366997542
  H           0.39505953568200     -1.31470326689560      2.70720477082760
  H          -4.51631215211082     -0.62656012209923     -0.39177944056328
  H          -3.35014142419861     -0.64029242992810     -1.70123383831384
  H           3.82538169728302     -1.40928509922117     -2.34079299459823
  H           4.65393210509292      0.13646511578098     -2.40787073064259
  H           4.48248847068922      1.53775313912858     -0.53289069184756
  H          -1.73879450240140     -2.44195644588537      3.24399522159132
  H           3.28887433804878      2.29829278947229      1.49754604358449
  H          -3.44218531674804     -3.21465714231323     -1.68529684464286
  H           2.70206559915010      1.07363778395518     -3.77923128179293
  H           0.10295011843383      1.29946562070753      2.40235531243361
  H          -4.37076254794299     -2.74227893107231      1.02331632349667
  H          -5.75511584612542     -3.93934652784532     -1.52829943409211
  H          -6.23478090440883     -2.31911679982631     -0.78388045310781
  H           1.99318008373227     -0.54085718112357     -5.44716164973157
  H           2.71558185660640     -1.91768796345466     -4.45145034388000
  H          -5.58893738321522      1.40190123096959      4.14807180133537
  H          -4.52986129062834     -0.13185747150585      5.68710699564510
  C          -4.98018920782799      0.63415485633589      3.66777725915642
  O          -2.86357519809789      0.40015919993715      4.59949943106635
  C          -2.76700302077443      1.16881365008756      3.49424246481103
  C          -4.16879810072601     -0.19975932358076      4.66305889240366
  O          -3.96666864326183      1.28201531668974      2.88240038547100
  O          -1.76354261316660      1.68768503446876      3.11220561284510
  H          -5.59690464599994      0.02901291423595      3.00726049629562
  H          -4.08814812820331     -1.24396900220967      4.36088842455440
*
