38
Coordinates from ORCA-job honokiol2 E -846.947280554140
  O       1.797381      1.110394      2.621784
  O      -3.830811     -2.012619      2.172348
  C       1.252346     -0.049692      0.532486
  C      -0.098372     -0.558069      0.959874
  C      -2.422366     -1.149942      0.395346
  C      -1.154347     -0.659846      0.027937
  C       2.958540      0.061450     -1.237688
  C       1.694720     -0.339774     -0.779539
  C       2.129709      0.693912      1.380027
  C      -0.342260     -0.986843      2.278272
  C      -2.639056     -1.551761      1.735136
  C      -3.507649     -1.225599     -0.658220
  C       3.400718     -0.279037     -2.637549
  C       3.806085      0.765766     -0.378925
  C      -1.593743     -1.471090      2.656300
  C       3.391730      1.078563      0.912258
  C      -3.878741     -2.655962     -0.949046
  C       2.497160      0.377122     -3.646479
  C      -5.128861     -3.110359     -0.821002
  C       1.786695     -0.331476     -4.528601
  H      -1.002062     -0.341918     -0.994622
  H       1.073290     -0.909593     -1.457470
  H       0.436216     -0.982208      3.027012
  H      -4.383223     -0.622582     -0.332684
  H      -3.149960     -0.792144     -1.616793
  H       3.400955     -1.385363     -2.751957
  H       4.435811      0.079509     -2.824331
  H       4.787099      1.083787     -0.709654
  H      -1.751474     -1.791359      3.678911
  H       4.054965      1.644479      1.555068
  H      -3.103199     -3.337403     -1.286976
  H       2.422032      1.460763     -3.655898
  H       0.906507      1.097672      2.989010
  H      -4.623399     -2.064304      1.625337
  H      -5.354012     -4.147530     -1.046866
  H      -5.933834     -2.459189     -0.494492
  H       1.145554      0.177279     -5.241039
  H       1.835214     -1.415825     -4.549388
38
Coordinates from ORCA-job honokiol2 E -846.960493214905
  O       1.702957      1.162211      2.590913
  O      -3.745735     -2.137226      2.193591
  C       1.245748     -0.047705      0.526382
  C      -0.076895     -0.578628      0.964086
  C      -2.403735     -1.151365      0.434836
  C      -1.155435     -0.639773      0.069854
  C       2.959319      0.089050     -1.222749
  C       1.716345     -0.345180     -0.762096
  C       2.067370      0.746446      1.357344
  C      -0.288315     -1.062981      2.262065
  C      -2.580455     -1.622250      1.747944
  C      -3.534630     -1.169515     -0.576547
  C       3.430056     -0.274128     -2.619497
  C       3.756773      0.847565     -0.367489
  C      -1.520661     -1.576140      2.646342
  C       3.310783      1.176580      0.905870
  C      -3.966415     -2.565964     -0.948512
  C       2.536322      0.296353     -3.689703
  C      -5.217700     -3.010440     -0.835471
  C       1.885321     -0.448410     -4.582368
  H      -1.035656     -0.257291     -0.934704
  H       1.120261     -0.958859     -1.423807
  H       0.516806     -1.095269      2.983275
  H      -4.386465     -0.592398     -0.198051
  H      -3.202881     -0.670074     -1.492947
  H       3.480232     -1.363726     -2.714788
  H       4.444955      0.108197     -2.777145
  H       4.729941      1.195113     -0.691608
  H      -1.656542     -1.957054      3.650430
  H       3.929014      1.785271      1.553278
  H      -3.204215     -3.235879     -1.332486
  H       2.418766      1.374951     -3.718953
  H       0.789300      1.064084      2.866241
  H      -4.491097     -2.179912      1.591631
  H      -5.470268     -4.024268     -1.120225
  H      -6.013430     -2.368826     -0.472130
  H       1.250342      0.014871     -5.328228
  H       1.975279     -1.528223     -4.586692
38
Coordinates from ORCA-job honokiol2 E -846.966600334454
  O       1.619144      1.199482      2.570169
  O      -3.685212     -2.246891      2.197311
  C       1.243112     -0.049836      0.519614
  C      -0.058148     -0.597841      0.966661
  C      -2.388264     -1.159514      0.460103
  C      -1.153569     -0.631925      0.101109
  C       2.962901      0.118071     -1.215084
  C       1.738746     -0.349366     -0.750189
  C       2.016892      0.787758      1.337898
  C      -0.245154     -1.129074      2.247895
  C      -2.534447     -1.688738      1.749108
  C      -3.554873     -1.131597     -0.510887
  C       3.460086     -0.260597     -2.602709
  C       3.713612      0.926560     -0.365413
  C      -1.463236     -1.666090      2.633942
  C       3.243088      1.263843      0.895020
  C      -4.053883     -2.492558     -0.926879
  C       2.575228      0.230682     -3.716542
  C      -5.309931     -2.912784     -0.819241
  C       1.980161     -0.541318     -4.618559
  H      -1.052720     -0.204491     -0.889837
  H       1.159109     -0.999356     -1.395487
  H       0.581492     -1.179163      2.946304
  H      -4.389409     -0.563786     -0.092116
  H      -3.233101     -0.587096     -1.399121
  H       3.558342     -1.343644     -2.683689
  H       4.461087      0.154633     -2.733445
  H       4.676564      1.305192     -0.688602
  H      -1.588658     -2.092751      3.620634
  H       3.816722      1.910202      1.546496
  H      -3.306632     -3.162843     -1.341913
  H       2.421937      1.305842     -3.759831
  H       0.693035      0.986895      2.729207
  H      -4.356477     -2.286382      1.508347
  H      -5.601326     -3.904146     -1.139865
  H      -6.091582     -2.270311     -0.425715
  H       1.355345     -0.119621     -5.395578
  H       2.105376     -1.618234     -4.611228
38
Coordinates from ORCA-job honokiol2 E -846.967792525714
  O       1.522409      1.295865      2.524198
  O      -3.625981     -2.406604      2.173282
  C       1.241060     -0.044670      0.509890
  C      -0.044433     -0.632594      0.958363
  C      -2.388862     -1.172949      0.482442
  C      -1.166972     -0.613385      0.125630
  C       2.973704      0.152645     -1.212259
  C       1.768378     -0.361069     -0.744080
  C       1.961453      0.862480      1.307236
  C      -0.190525     -1.253281      2.206282
  C      -2.490067     -1.801025      1.732903
  C      -3.588701     -1.066334     -0.440285
  C       3.509817     -0.248934     -2.576332
  C       3.669973      1.030133     -0.383655
  C      -1.392873     -1.827540      2.588161
  C       3.167618      1.387638      0.858823
  C      -4.141150     -2.388827     -0.907092
  C       2.619624      0.154359     -3.719320
  C      -5.408309     -2.772504     -0.796814
  C       2.086129     -0.674310     -4.608628
  H      -1.096777     -0.113698     -0.834024
  H       1.225410     -1.060667     -1.369617
  H       0.659092     -1.341820      2.872642
  H      -4.394671     -0.500821      0.040065
  H      -3.283551     -0.479409     -1.309970
  H       3.667945     -1.329984     -2.617747
  H       4.491766      0.215173     -2.705377
  H       4.616115      1.446178     -0.711222
  H      -1.489442     -2.326361      3.543778
  H       3.694684      2.087522      1.494255
  H      -3.419806     -3.063758     -1.360538
  H       2.407834      1.218490     -3.794484
  H       0.611345      1.003834      2.656282
  H      -4.275775     -2.454671      1.461162
  H      -5.741250     -3.738019     -1.154552
  H      -6.163676     -2.124901     -0.361740
  H       1.454466     -0.314162     -5.410864
  H       2.269358     -1.742814     -4.568907
38
Coordinates from ORCA-job honokiol2 E -846.968241359201
  O       1.469835      1.289506      2.511545
  O      -3.608099     -2.457306      2.159358
  C       1.239384     -0.049010      0.491101
  C      -0.040701     -0.654228      0.936460
  C      -2.391890     -1.183758      0.478725
  C      -1.174863     -0.611195      0.119051
  C       2.984596      0.173198     -1.215170
  C       1.789781     -0.372896     -0.751872
  C       1.927694      0.883623      1.287682
  C      -0.167962     -1.298434      2.174565
  C      -2.472328     -1.845516      1.715373
  C      -3.604230     -1.048487     -0.421770
  C       3.548133     -0.227951     -2.565554
  C       3.643892      1.086038     -0.392750
  C      -1.364075     -1.884728      2.558245
  C       3.121626      1.441873      0.842433
  C      -4.202254     -2.358583     -0.865397
  C       2.656512      0.133559     -3.720509
  C      -5.482276     -2.695205     -0.742575
  C       2.166767     -0.721112     -4.610475
  H      -1.113371     -0.091563     -0.830803
  H       1.266687     -1.092407     -1.372139
  H       0.688644     -1.377397      2.833636
  H      -4.382818     -0.454755      0.072631
  H      -3.300107     -0.477601     -1.304589
  H       3.743988     -1.305221     -2.589972
  H       4.516799      0.267732     -2.691726
  H       4.579533      1.526600     -0.718377
  H      -1.451644     -2.400580      3.505721
  H       3.622568      2.161221      1.477488
  H      -3.506083     -3.064806     -1.311378
  H       2.404691      1.188568     -3.803604
  H       0.584388      0.923022      2.645310
  H      -4.233297     -2.557662      1.427533
  H      -5.853739     -3.652502     -1.085453
  H      -6.211436     -2.017513     -0.309045
  H       1.531447     -0.393279     -5.423914
  H       2.389570     -1.782035     -4.561900
38
Coordinates from ORCA-job honokiol2 E -846.968384801221
  O       1.442146      1.315429      2.493497
  O      -3.607044     -2.459149      2.158261
  C       1.236398     -0.045542      0.486135
  C      -0.042623     -0.656756      0.930747
  C      -2.395077     -1.181758      0.479770
  C      -1.180509     -0.602136      0.119444
  C       2.986969      0.174534     -1.213010
  C       1.791442     -0.374524     -0.753493
  C       1.915970      0.895421      1.280992
  C      -0.156956     -1.326322      2.156384
  C      -2.466768     -1.859715      1.708387
  C      -3.611261     -1.038004     -0.413400
  C       3.559170     -0.230132     -2.558034
  C       3.637711      1.096103     -0.393373
  C      -1.350754     -1.918444      2.539332
  C       3.108378      1.457551      0.837262
  C      -4.213798     -2.346362     -0.856792
  C       2.670227      0.126327     -3.716921
  C      -5.494141     -2.680050     -0.722316
  C       2.191089     -0.733993     -4.607680
  H      -1.122435     -0.072156     -0.824696
  H       1.272882     -1.099159     -1.371386
  H       0.706460     -1.416617      2.804935
  H      -4.381768     -0.442121      0.090038
  H      -3.312486     -0.468589     -1.299116
  H       3.758824     -1.306786     -2.575632
  H       4.526709      0.268030     -2.684357
  H       4.571230      1.540943     -0.718831
  H      -1.432081     -2.450150      3.478620
  H       3.602128      2.185430      1.468310
  H      -3.525138     -3.051185     -1.316319
  H       2.411529      1.179207     -3.802862
  H       0.562901      0.938422      2.636949
  H      -4.234628     -2.574800      1.429702
  H      -5.871993     -3.633456     -1.069662
  H      -6.215209     -2.004822     -0.272530
  H       1.556995     -0.412276     -5.424638
  H       2.420871     -1.793189     -4.555832
38
Coordinates from ORCA-job honokiol2 E -846.968424478000
  O       1.434789      1.316888      2.487544
  O      -3.612997     -2.438658      2.164930
  C       1.233590     -0.043987      0.481722
  C      -0.046069     -0.655109      0.926424
  C      -2.398094     -1.178264      0.478624
  C      -1.183411     -0.600704      0.115332
  C       2.987676      0.171566     -1.212231
  C       1.789479     -0.374606     -0.756447
  C       1.912377      0.894867      1.278659
  C      -0.157704     -1.324581      2.151871
  C      -2.469503     -1.850747      1.709684
  C      -3.614443     -1.040017     -0.415482
  C       3.561835     -0.232887     -2.556946
  C       3.639246      1.089562     -0.389655
  C      -1.351817     -1.914723      2.537054
  C       3.108127      1.452438      0.839813
  C      -4.215199     -2.351398     -0.852966
  C       2.677851      0.132050     -3.717454
  C      -5.493703     -2.689063     -0.709785
  C       2.199075     -0.723239     -4.613240
  H      -1.124197     -0.073191     -0.830017
  H       1.269718     -1.097473     -1.375228
  H       0.708297     -1.416794      2.796597
  H      -4.384181     -0.442215      0.085780
  H      -3.317062     -0.476835     -1.305044
  H       3.755327     -1.310116     -2.576504
  H       4.532216      0.259709     -2.680280
  H       4.575078      1.531428     -0.712477
  H      -1.432849     -2.447392      3.475847
  H       3.603312      2.177886      1.472531
  H      -3.528037     -3.054436     -1.317073
  H       2.423445      1.186066     -3.800252
  H       0.559666      0.933480      2.636062
  H      -4.236338     -2.571248      1.435932
  H      -5.870423     -3.643867     -1.054361
  H      -6.213495     -2.015652     -0.255399
  H       1.568990     -0.396174     -5.431162
  H       2.424787     -1.783353     -4.564516
