! OPT B3LYP def2-TZVP TightSCF

%maxcore 5000

%pal
nprocs 20
end

* xyz 0 1
O        1.7973805030      1.1103938364      2.6217837336                 
O       -3.8308105620     -2.0126190840      2.1723475979                 
C        1.2523457431     -0.0496923406      0.5324857533                 
C       -0.0983722173     -0.5580686640      0.9598739660                 
C       -2.4223663142     -1.1499418186      0.3953460245                 
C       -1.1543465356     -0.6598460015      0.0279368004                 
C        2.9585400827      0.0614503351     -1.2376875467                 
C        1.6947202000     -0.3397740480     -0.7795387388                 
C        2.1297091742      0.6939115462      1.3800269810                 
C       -0.3422597157     -0.9868429072      2.2782718657                 
C       -2.6390562024     -1.5517607597      1.7351356142                 
C       -3.5076490751     -1.2255994964     -0.6582195511                 
C        3.4007181551     -0.2790368040     -2.6375487027                 
C        3.8060845048      0.7657659967     -0.3789254271                 
C       -1.5937426462     -1.4710904063      2.6562997352                 
C        3.3917299022      1.0785629398      0.9122582531                 
C       -3.8787406744     -2.6559622131     -0.9490464891                 
C        2.4971602872      0.3771223556     -3.6464794568                 
C       -5.1288611240     -3.1103594617     -0.8210024502                 
C        1.7866953714     -0.3314764149     -4.5286009313                 
H       -1.0020622991     -0.3419179340     -0.9946217587                 
H        1.0732896210     -0.9095929542     -1.4574698279                 
H        0.4362159454     -0.9822076622      3.0270123478                 
H       -4.3832231386     -0.6225822946     -0.3326836102                 
H       -3.1499597374     -0.7921440673     -1.6167930861                 
H        3.4009552955     -1.3853628150     -2.7519570077                 
H        4.4358113241      0.0795090924     -2.8243308078                 
H        4.7870988026      1.0837870200     -0.7096535452                 
H       -1.7514742829     -1.7913593810      3.6789110345                 
H        4.0549645510      1.6444786175      1.5550678800                 
H       -3.1031986118     -3.3374029142     -1.2869756333                 
H        2.4220319036      1.4607627510     -3.6558983401                 
H        0.9065071107      1.0976718422      2.9890095952                 
H       -4.6233985955     -2.0643035090      1.6253365836                 
H       -5.3540115480     -4.1475295475     -1.0468657285                 
H       -5.9338337003     -2.4591891965     -0.4944921746                 
H        1.1455542808      0.1772785302     -5.2410388453                 
H        1.8352141522     -1.4158253767     -4.5493876119
*
