58
Coordinates from ORCA-job honokiol3_FEC2 E -1730.375587494851
  O       1.965803      1.181702      2.750042
  O      -3.640869     -1.863638      2.157244
  C       1.429064      0.110809      0.616060
  C       0.100992     -0.392185      1.034354
  C      -2.239289     -0.813600      0.476564
  C      -0.980267     -0.325900      0.152946
  C       3.108601      0.287007     -1.158316
  C       1.867158     -0.121849     -0.690792
  C       2.287766      0.817653      1.477446
  C      -0.107991     -0.993385      2.277904
  C      -2.414852     -1.408215      1.731185
  C      -3.388190     -0.674404     -0.493417
  C       3.525510      0.011321     -2.587337
  C       3.956293      0.938675     -0.265701
  C      -1.352309     -1.499059      2.620809
  C       3.552558      1.199324      1.033884
  C      -3.999877     -1.996039     -0.870080
  C       2.435536      0.295895     -3.578364
  C      -5.278197     -2.322444     -0.703383
  C       1.927313     -0.596763     -4.417891
  H      -0.849750      0.152001     -0.808384
  H       1.209486     -0.653092     -1.366145
  H       0.712051     -1.087593      2.976339
  H      -4.166988     -0.024602     -0.079968
  H      -3.015705     -0.185930     -1.395895
  H       3.847277     -1.030176     -2.691138
  H       4.398867      0.630533     -2.816160
  H       4.938904      1.259141     -0.591689
  H      -1.509679     -1.980885      3.576823
  H       4.194917      1.731726      1.723279
  H      -3.313740     -2.724586     -1.293531
  H       2.034202      1.304867     -3.562376
  H       1.005423      1.240227      2.876997
  H      -4.168651     -2.138050      1.390397
  H      -5.660787     -3.292189     -0.993973
  H      -5.992821     -1.616055     -0.292666
  H       1.131807     -0.338712     -5.105172
  H       2.291240     -1.618512     -4.445778
  H      -4.444883      0.796452      2.241811
  H      -3.556368     -0.355814      4.166889
  O      -2.184754      1.162739      4.461785
  C      -3.541072      0.726336      4.268464
  C      -3.958578      1.427700      2.980214
  C      -1.754263      1.793871      3.363256
  O      -0.644787      2.200004      3.192560
  O      -2.751675      1.915768      2.451507
  F      -4.787489      2.490978      3.243255
  H      -4.140143      1.053986      5.114583
  H       1.949435      4.825827     -0.644731
  H       2.345554      3.206117      0.021106
  C       1.577851      3.825146     -0.438720
  F      -0.274842      5.104733      0.360409
  C       0.301655      3.852608      0.394258
  H       0.401245      3.554337      1.433812
  O       1.160175      3.216083     -1.671582
  O      -0.546084      2.953558     -0.269638
  C      -0.057409      2.669359     -1.509342
  O      -0.635660      2.014619     -2.318783
58
Coordinates from ORCA-job honokiol3_FEC2 E -1730.375650343795
  O       1.964614      1.184110      2.749284
  O      -3.638574     -1.861584      2.160456
  C       1.431754      0.111048      0.617338
  C       0.103895     -0.392613      1.034886
  C      -2.237726     -0.811251      0.479284
  C      -0.978323     -0.326221      0.154428
  C       3.112541      0.286978     -1.156780
  C       1.871143     -0.123236     -0.689012
  C       2.289589      0.819061      1.478280
  C      -0.104753     -0.994470      2.278240
  C      -2.412871     -1.407426      1.733298
  C      -3.388501     -0.663534     -0.488866
  C       3.530460      0.010082     -2.585656
  C       3.958441      0.941873     -0.265039
  C      -1.348982     -1.500629      2.621390
  C       3.553229      1.202995      1.034202
  C      -4.001938     -1.981305     -0.876020
  C       2.439634      0.288884     -3.577782
  C      -5.280964     -2.306596     -0.712306
  C       1.934515     -0.607066     -4.415704
  H      -0.850186      0.149726     -0.807641
  H       1.214699     -0.657168     -1.363399
  H       0.715376     -1.088857      2.976594
  H      -4.165927     -0.015467     -0.069744
  H      -3.016461     -0.164578     -1.386548
  H       3.856007     -1.030429     -2.687369
  H       4.401635      0.631913     -2.815613
  H       4.940094      1.264675     -0.591628
  H      -1.505558     -1.984344      3.576626
  H       4.193924      1.738173      1.723233
  H      -3.317018     -2.707983     -1.304548
  H       2.035154      1.296690     -3.564520
  H       1.003444      1.242087      2.875567
  H      -4.168595     -2.132717      1.394019
  H      -5.664880     -3.273628     -1.010199
  H      -5.994842     -1.602322     -0.296755
  H       1.138553     -0.352685     -5.103854
  H       2.301155     -1.627919     -4.441458
  H      -4.447090      0.791252      2.248208
  H      -3.549912     -0.362300      4.168701
  O      -2.180746      1.159337      4.461674
  C      -3.535917      0.719776      4.272079
  C      -3.958619      1.421590      2.985839
  C      -1.754258      1.790701      3.361816
  O      -0.645743      2.198560      3.188741
  O      -2.754444      1.910329      2.452714
  F      -4.786930      2.484850      3.253623
  H      -4.134035      1.044594      5.119955
  H       1.935971      4.826161     -0.649938
  H       2.337518      3.207998      0.017178
  C       1.567941      3.824289     -0.443066
  F      -0.288482      5.099192      0.356118
  C       0.291872      3.848310      0.389848
  H       0.391898      3.551207      1.429801
  O       1.151931      3.213206     -1.675086
  O      -0.553654      2.946420     -0.273486
  C      -0.063776      2.662660     -1.513973
  O      -0.638565      2.005026     -2.322199
58
Coordinates from ORCA-job honokiol3_FEC2 E -1730.375721011698
  O       1.959057      1.188168      2.747695
  O      -3.635840     -1.864375      2.153921
  C       1.436898      0.109589      0.618301
  C       0.109409     -0.397116      1.031611
  C      -2.234832     -0.806307      0.479013
  C      -0.974025     -0.327199      0.152778
  C       3.121983      0.287296     -1.152830
  C       1.880144     -0.126042     -0.686826
  C       2.291103      0.821198      1.480079
  C      -0.099694     -1.004776      2.272311
  C      -2.409882     -1.411559      1.728201
  C      -3.389323     -0.640047     -0.483535
  C       3.544578      0.007892     -2.580375
  C       3.963143      0.947761     -0.261050
  C      -1.344003     -1.512976      2.613438
  C       3.552996      1.209578      1.036857
  C      -4.006244     -1.949483     -0.890522
  C       2.453824      0.273327     -3.576677
  C      -5.285086     -2.274523     -0.724682
  C       1.957304     -0.630179     -4.411620
  H      -0.850445      0.145799     -0.810865
  H       1.226757     -0.664397     -1.360743
  H       0.720003     -1.101995      2.970878
  H      -4.163638      0.002851     -0.050138
  H      -3.019151     -0.118143     -1.369702
  H       3.879148     -1.030256     -2.676829
  H       4.410959      0.636013     -2.811345
  H       4.943335      1.275263     -0.587249
  H      -1.499596     -2.004096      3.565121
  H       4.189030      1.750287      1.726080
  H      -3.325297     -2.670978     -1.333713
  H       2.042387      1.278449     -3.570769
  H       0.997051      1.246666      2.872265
  H      -4.170160     -2.122739      1.386438
  H      -5.672132     -3.236244     -1.035611
  H      -5.995789     -1.576322     -0.293864
  H       1.161688     -0.384172     -5.103212
  H       2.330045     -1.648941     -4.431754
  H      -4.456338      0.785211      2.278473
  H      -3.533729     -0.368101      4.185750
  O      -2.169822      1.160544      4.469691
  C      -3.523085      0.713923      4.292657
  C      -3.960711      1.415194      3.011275
  C      -1.754946      1.790012      3.364371
  O      -0.648734      2.200021      3.181244
  O      -2.763908      1.904268      2.464293
  F      -4.786587      2.479100      3.289866
  H      -4.117366      1.032851      5.145442
  H       1.904165      4.828236     -0.661206
  H       2.317118      3.213013      0.007895
  C       1.543919      3.823535     -0.454005
  F      -0.323313      5.086264      0.341140
  C       0.266669      3.838856      0.376630
  H       0.366074      3.545490      1.417786
  O       1.134192      3.209412     -1.685611
  O      -0.571722      2.929968     -0.286754
  C      -0.076894      2.648523     -1.528962
  O      -0.641974      1.983835     -2.335818
58
Coordinates from ORCA-job honokiol3_FEC2 E -1730.375746447195
  O       1.958009      1.186429      2.747345
  O      -3.635737     -1.857735      2.157090
  C       1.438846      0.109002      0.617660
  C       0.110955     -0.396158      1.030991
  C      -2.235074     -0.798687      0.482475
  C      -0.973423     -0.322965      0.154020
  C       3.124775      0.287133     -1.152127
  C       1.882631     -0.126477     -0.687182
  C       2.292192      0.820682      1.480177
  C      -0.098614     -1.001674      2.272720
  C      -2.410040     -1.404335      1.731489
  C      -3.390695     -0.628380     -0.477776
  C       3.549069      0.006803     -2.578889
  C       3.965190      0.947939     -0.259765
  C      -1.343477     -1.507106      2.615731
  C       3.554037      1.209563      1.037868
  C      -4.006684     -1.935818     -0.891057
  C       2.458795      0.267879     -3.576599
  C      -5.284548     -2.263425     -0.722663
  C       1.964985     -0.638129     -4.410410
  H      -0.851348      0.148812     -0.810722
  H       1.229335     -0.664364     -1.361545
  H       0.721358     -1.099266      2.970925
  H      -4.164777      0.010466     -0.038184
  H      -3.022117     -0.098804     -1.359737
  H       3.886502     -1.030585     -2.673471
  H       4.413933      0.636921     -2.810078
  H       4.945308      1.276030     -0.585476
  H      -1.498745     -1.998094      3.567562
  H       4.188944      1.750892      1.727478
  H      -3.326328     -2.654045     -1.340320
  H       2.045573      1.272232     -3.573570
  H       0.995927      1.244798      2.869095
  H      -4.171986     -2.111481      1.389357
  H      -5.671207     -3.224104     -1.037300
  H      -5.995006     -1.568519     -0.286131
  H       1.169686     -0.394773     -5.103351
  H       2.339436     -1.656297     -4.428415
  H      -4.461094      0.777121      2.280806
  H      -3.529178     -0.378609      4.181493
  O      -2.166210      1.151002      4.464679
  C      -3.519243      0.703159      4.290785
  C      -3.961399      1.406086      3.011829
  C      -1.754840      1.781987      3.358844
  O      -0.649884      2.194443      3.173813
  O      -2.766121      1.894768      2.461043
  F      -4.784961      2.470727      3.294896
  H      -4.112067      1.019262      5.145587
  H       1.893807      4.829582     -0.662216
  H       2.310289      3.214692      0.005398
  C       1.535964      3.823760     -0.456533
  F      -0.335526      5.080714      0.337758
  C       0.257848      3.834645      0.372759
  H       0.356523      3.540679      1.413604
  O       1.128998      3.210390     -1.689108
  O      -0.577432      2.924396     -0.291708
  C      -0.080230      2.645540     -1.534139
  O      -0.642208      1.978723     -2.341570
58
Coordinates from ORCA-job honokiol3_FEC2 E -1730.375787184770
  O       1.955364      1.183107      2.747298
  O      -3.635675     -1.856324      2.154807
  C       1.440638      0.106734      0.615471
  C       0.112335     -0.398191      1.027789
  C      -2.235167     -0.793033      0.481958
  C      -0.972439     -0.319775      0.152549
  C       3.128684      0.286990     -1.150976
  C       1.885850     -0.127044     -0.688881
  C       2.291727      0.819141      1.480092
  C      -0.097633     -1.004937      2.268853
  C      -2.410208     -1.401423      1.729780
  C      -3.391633     -0.616447     -0.475737
  C       3.556981      0.005899     -2.576157
  C       3.967654      0.947071     -0.256529
  C      -1.343035     -1.507719      2.612826
  C       3.554368      1.208158      1.040412
  C      -4.007358     -1.920773     -0.897416
  C       2.468724      0.260939     -3.577074
  C      -5.284393     -2.250559     -0.726679
  C       1.979656     -0.648571     -4.409836
  H      -0.851017      0.151305     -0.812959
  H       1.233261     -0.663794     -1.364802
  H       0.722677     -1.104743      2.966267
  H      -4.165113      0.017213     -0.027678
  H      -3.024163     -0.078303     -1.352373
  H       3.898754     -1.030313     -2.667957
  H       4.419910      0.638996     -2.806486
  H       4.948419      1.275112     -0.580216
  H      -1.498020     -2.000045      3.564014
  H       4.187554      1.749490      1.731370
  H      -3.328135     -2.635461     -1.353838
  H       2.053178      1.264290     -3.578772
  H       0.993272      1.243319      2.865383
  H      -4.174415     -2.103484      1.386515
  H      -5.671249     -3.209678     -1.045783
  H      -5.994337     -1.558693     -0.284395
  H       1.185660     -0.408954     -5.105646
  H       2.356515     -1.665903     -4.424266
  H      -4.472347      0.772492      2.303867
  H      -3.519683     -0.382079      4.193336
  O      -2.159099      1.150054      4.469062
  C      -3.512323      0.699543      4.304347
  C      -3.965106      1.402342      3.029034
  C      -1.756037      1.779863      3.359363
  O      -0.653055      2.193495      3.165900
  O      -2.773749      1.890045      2.468374
  F      -4.785162      2.467875      3.318142
  H      -4.100658      1.012647      5.163295
  H       1.878346      4.832746     -0.663134
  H       2.298863      3.217902      0.001137
  C       1.523420      3.825200     -0.461305
  F      -0.356730      5.072809      0.325752
  C       0.242306      3.829290      0.363439
  H       0.338052      3.536370      1.404619
  O       1.122545      3.214154     -1.696821
  O      -0.585780      2.915548     -0.303698
  C      -0.083137      2.641861     -1.545302
  O      -0.639143      1.971675     -2.355101
