38
Coordinates from ORCA-job honokiol3 E -847.048579207085
  O           1.53023238041500      1.20514529863998      2.51686840961285
  O          -3.60246990088015     -2.38844631904239      2.10928814278707
  C           1.26389707277943     -0.04522634319680      0.45273932258315
  C          -0.01660285309270     -0.64497938560435      0.89101753625847
  C          -2.37445154004332     -1.11185486004064      0.45184533696796
  C          -1.15569881397675     -0.54930830198725      0.09031944353763
  C           2.97829327737735      0.22352725513201     -1.26458369345711
  C           1.78083257339668     -0.32103689720990     -0.81215499807436
  C           1.97782108172649      0.83460095100757      1.28212272417899
  C          -0.12833741157989     -1.34033583325715      2.09978532654101
  C          -2.44944122356287     -1.81300167846148      1.66458134780956
  C          -3.59401442486289     -0.94404086252255     -0.42606404123199
  C           3.50385889300732     -0.11904914727342     -2.64262809062790
  C           3.66890689883054      1.08086006106234     -0.41226582586029
  C          -1.32882060788906     -1.91789735709980      2.48113343241337
  C           3.17528295224557      1.38830112446788      0.84684901231354
  C          -4.17436675687859     -2.24954186041962     -0.89835775824327
  C           2.53641410708792      0.23503795860509     -3.73433131988722
  C          -5.43580608139141     -2.62929907116337     -0.72017464206983
  C           2.00749708879197     -0.62779272950657     -4.59271583871313
  H          -1.09279857661580      0.00076794588379     -0.84105884779343
  H           1.23006945374692     -0.99503054064774     -1.45735598395055
  H           0.74388228247230     -1.46575452036282      2.72939612251285
  H          -4.36680748562447     -0.37765438945034      0.10428544157638
  H          -3.30775882865717     -0.34721684747928     -1.29610486736734
  H           3.73998265220486     -1.18579445132578     -2.70295973665370
  H           4.44264361391395      0.42040501910901     -2.80147248689866
  H           4.60547836803929      1.51925976459332     -0.73605567084900
  H          -1.41261726417623     -2.47400027596965      3.40534039433856
  H           3.70027521281387      2.06931042567549      1.50353105540638
  H          -3.48197789073664     -2.91605908561544     -1.40543370799767
  H           2.25270490550515      1.28306926561419     -3.78689998832058
  H           0.65193368426829      0.82782450179238      2.66214637093659
  H          -4.20943064709487     -2.53081491810012      1.36832942156268
  H          -5.79788320062336     -3.58350072902117     -1.08043858712547
  H          -6.15497336504151     -1.98865292677043     -0.21996600723368
  H           1.30817310118239     -0.31379348375737     -5.35736441397360
  H           2.26114166742236     -1.68203726449757     -4.56342879000823
