! Opt B3LYP def2-TZVP TightSCF TightOpt D3BJ RIJCOSX

%maxcore 5000

%pal
nprocs 4
end

* xyz 0 1
O           1.49558779142304      1.27339391926726      2.47644933244666
  O          -3.60018768470027     -2.41412853862439      2.16492063329164
  C           1.24765023694115     -0.04666685502922      0.44858839419162
  C          -0.03192169069994     -0.65192661751622      0.90131104883695
  C          -2.39477588193204     -1.14398603476141      0.48060472040162
  C          -1.17975065728897     -0.57468961103786      0.10719028517377
  C           2.97810901172051      0.18240714858684     -1.26742104842717
  C           1.78046910415805     -0.35827369514841     -0.80422767660789
  C           1.94958812930936      0.86767667418238      1.25414139803934
  C          -0.13331646111852     -1.33657075558741      2.11925983222331
  C          -2.45594308096110     -1.83283498268472      1.70288891327828
  C          -3.62352540841454     -0.98470026105547     -0.39291273344597
  C           3.52064210879465     -0.19504915655643     -2.63299274813499
  C           3.65421211674002      1.07358635723540     -0.43570773456224
  C          -1.32796280965389     -1.91988642570701      2.51360387606384
  C           3.14656878258809      1.41782176554498      0.80902986557778
  C          -4.22563609710867     -2.28690671529490     -0.85520340130792
  C           2.66112914094540      0.28845256360382     -3.76898413148891
  C          -5.49745877586260     -2.64024402022177     -0.69219159217889
  C           2.12579446620224     -0.48446818352611     -4.70652039490830
  H          -1.12845144916210     -0.03332990744902     -0.83077875258557
  H           1.24258575091372     -1.06232043638859     -1.42933414757848
  H           0.74178633107515     -1.44852707503729      2.74845888382160
  H          -4.38836678269177     -0.40359220169383      0.13425068596220
  H          -3.33927021986988     -0.39856040995982     -1.27165133082687
  H           3.63618469220565     -1.28064162330830     -2.70716635753692
  H           4.52291268967338      0.23356835282396     -2.73760390189418
  H           4.59200445672437      1.50834541173532     -0.76269561539355
  H          -1.40140651783822     -2.46605843844040      3.44520950836186
  H           3.66244403927807      2.12228555642964      1.44879939011050
  H          -3.54383542789994     -2.97110682164535     -1.35405521547213
  H           2.47698593372365      1.35988815909262     -3.79439656279917
  H           0.62237401725115      0.89062319910831      2.63672050081024
  H          -4.22314953706850     -2.55221936624591      1.43678641214245
  H          -5.87322555475106     -3.58884849249724     -1.05423987591753
  H          -6.21251826730287     -1.98488215596209     -0.20494214218448
  H           1.51754359422892     -0.07344458560922     -5.50274128247225
  H           2.28119430492829     -1.55819624882209     -4.71468349001024
*
