10
Coordinates from ORCA-job FEC E -441.647740781225
  F          -1.89149481411108      0.67940562142557     -0.69261105422281
  O           0.05556414801277      0.91711401718264      0.42686938512370
  O           0.56492452448889     -1.16477986982851     -0.15381866555858
  O           2.16295744698670      0.42086688054821     -0.21339140388921
  C          -1.18598391288162      0.25082552536464      0.41748202422712
  C          -0.80932061297048     -1.21809292997579      0.29005012837466
  C           1.03804569353764      0.07658589483128     -0.00730320181837
  H          -1.75687937329510      0.52577631788094      1.29939394450577
  H          -0.84936848260521     -1.73512064646526      1.24693870993810
  H          -1.40514461716251     -1.73358081096371     -0.45830986668038
