! B3LYP def2-TZVP TightSCF

%maxcore 5000

%pal
nprocs 20
end

* xyz 0 1
O           0.14195807768700      2.09649645532458     -1.71758039806954
  O          -4.11677461060348     -1.26837164177824      1.41684880324460
  C           1.01891116879739      0.48345699501260     -0.19322734147882
  C          -0.33800932726144      0.05739617583861      0.23116680549651
  C          -2.61815229857950     -0.65370132487175     -0.31349482882857
  C          -1.35479687451475     -0.21310516274641     -0.69157709671374
  C           3.45346826346022      0.26136238808768      0.04650317081735
  C           2.14970525830338     -0.10589223448056      0.37790533534919
  C           1.23245772529607      1.48820741439248     -1.15454611461401
  C          -0.62961098801703     -0.12613827011741      1.58460348021307
  C          -2.87310475440862     -0.82903433453494      1.05248634283977
  C          -3.69695898954153     -0.91251261570987     -1.34392670576360
  C           4.64062278629025     -0.42027016401517      0.70081200154604
  C           3.62454268957433      1.25921805153624     -0.90760509468109
  C          -1.88139527644026     -0.56566201210519      1.99162797404432
  C           2.52468689267115      1.86535234434629     -1.50202397212605
  C          -4.59640653228220      0.27847809780774     -1.55514244948926
  C           4.74727074883829     -1.88370489969172      0.36921093847323
  C          -5.91306377421964      0.28053423358574     -1.39243536117994
  C           4.77707582238039     -2.86852104377716      1.25893889832586
  H          -1.15260504881687     -0.08591870383506     -1.74719351953062
  H           1.99892001751600     -0.90169542103129      1.09812194263413
  H           0.12342672771298      0.09035074618038      2.33182909427335
  H          -3.20911236432750     -1.15994897976417     -2.29230459583180
  H          -4.29936265813573     -1.77460017090506     -1.05267762209117
  H           5.55358819595958      0.08772939236327      0.37273196115468
  H           4.59088083253884     -0.30217588776499      1.78761082606425
  H           4.62234205592137      1.57163680494710     -1.19338084879926
  H          -2.09216495733860     -0.69823016739369      3.04813959902179
  H           2.67086537878111      2.64780291464514     -2.24017259855935
  H          -4.09519062302390      1.19361985887824     -1.86105840327675
  H           4.79578502485740     -2.12290157732642     -0.69038098167719
  H           0.44107952413746      2.79356728757637     -2.31219057680528
  H          -4.16086903685334     -1.34587982130528      2.37639188148268
  H          -6.50376648573178      1.17158762663064     -1.56626406490827
  H          -6.44716526510819     -0.60760264562391     -1.07330047833755
  H           4.85726856263323     -3.90517883585645      0.95637994783046
  H           4.72445411184790     -2.67335087251834      2.32487404995057
*
