58
Coordinates from ORCA-job honokiol2-opt_EC2_closer E -1531.733038088562
  O       0.675654      2.086783      1.103349
  O      -3.652777     -2.490920      1.265809
  C       1.277278     -0.005244      0.007871
  C      -0.019012     -0.658679      0.339388
  C      -2.447332     -0.770010      0.043444
  C      -1.210013     -0.183343     -0.214109
  C       3.455169     -0.118943     -1.103810
  C       2.250908     -0.701277     -0.710937
  C       1.547941      1.325529      0.372065
  C      -0.087130     -1.774334      1.175483
  C      -2.478911     -1.880313      0.900941
  C      -3.713635     -0.209756     -0.574475
  C       4.480031     -0.913779     -1.891540
  C       3.675772      1.213359     -0.761293
  C      -1.304044     -2.379172      1.453736
  C       2.737617      1.926186     -0.026947
  C      -4.487101     -1.211299     -1.392069
  C       3.996328     -1.330578     -3.253454
  C      -5.778040     -1.492599     -1.234489
  C       3.938584     -2.581380     -3.694873
  H      -1.175086      0.676766     -0.872360
  H       2.041120     -1.726176     -0.996159
  H       0.818139     -2.163944      1.624071
  H      -4.366536      0.214930      0.194634
  H      -3.431300      0.627417     -1.217817
  H       4.779478     -1.804211     -1.330247
  H       5.379139     -0.299079     -2.005517
  H       4.599921      1.698357     -1.055296
  H      -1.362789     -3.238497      2.109334
  H       2.923018      2.950595      0.270331
  H      -3.921870     -1.731071     -2.162072
  H       3.668552     -0.522270     -3.902827
  H       0.200897      1.549144      1.762641
  H      -4.335621     -2.313429      0.600900
  H      -6.281537     -2.216532     -1.862981
  H      -6.381398     -0.988921     -0.486046
  H       3.581328     -2.817134     -4.689658
  H       4.248777     -3.417029     -3.076359
  H      -4.248149      1.580355      4.937417
  H      -3.920745     -0.779209      5.364584
  C      -4.026812      0.986375      4.049278
  O      -2.161748     -0.362775      4.371562
  C      -1.783231      0.739152      3.704276
  C      -3.603310     -0.445182      4.379522
  O      -2.841009      1.527947      3.430142
  O      -0.655351      1.000021      3.399208
  H      -4.845042      1.063688      3.338286
  H      -3.906501     -1.167733      3.621060
  O      -5.051194      2.673341      1.326590
  C      -4.040823      3.310000      1.279421
  O      -3.076398      3.148275      0.350269
  O      -3.710626      4.289062      2.148633
  C      -2.040392      4.134106      0.537770
  C      -2.340393      4.677372      1.935386
  H      -1.073483      3.640851      0.467394
  H      -2.143986      4.889665     -0.242895
  H      -2.273563      5.760652      2.008266
  H      -1.725476      4.210196      2.704760
58
Coordinates from ORCA-job honokiol2-opt_EC2_closer E -1531.733015642534
  O       0.678981      2.091723      1.121597
  O      -3.666707     -2.471696      1.250269
  C       1.274912      0.002917      0.016264
  C      -0.024256     -0.647795      0.341542
  C      -2.451496     -0.752505      0.035148
  C      -1.211718     -0.168634     -0.216309
  C       3.454073     -0.112304     -1.092919
  C       2.247918     -0.693072     -0.703411
  C       1.548571      1.331601      0.385827
  C      -0.098727     -1.764435      1.175834
  C      -2.489646     -1.863415      0.891606
  C      -3.713338     -0.189261     -0.588808
  C       4.477879     -0.906901     -1.882243
  C       3.677281      1.218332     -0.745893
  C      -1.318448     -2.366092      1.448694
  C       2.740016      1.930764     -0.010034
  C      -4.486410     -1.190080     -1.407777
  C       3.994943     -1.317209     -3.246412
  C      -5.778744     -1.467506     -1.254866
  C       3.934366     -2.566160     -3.692655
  H      -1.171876      0.692307     -0.873214
  H       2.035779     -1.716295     -0.992874
  H       0.803653     -2.156929      1.627742
  H      -4.367963      0.238928      0.176750
  H      -3.425738      0.645786     -1.232566
  H       4.774069     -1.800282     -1.323911
  H       5.378843     -0.294252     -1.992594
  H       4.602819      1.702205     -1.037386
  H      -1.382161     -3.226238      2.102772
  H       2.927734      2.953576      0.291292
  H      -3.919554     -1.713041     -2.174439
  H       3.670260     -0.505537     -3.893139
  H       0.205178      1.552983      1.780578
  H      -4.345983     -2.291516      0.582455
  H      -6.281686     -2.191406     -1.883848
  H      -6.383747     -0.960509     -0.509996
  H       3.577754     -2.797157     -4.688784
  H       4.241477     -3.404995     -3.076923
  H      -4.235571      1.570107      4.969951
  H      -3.894469     -0.786019      5.405975
  C      -4.015092      0.973438      4.083635
  O      -2.142007     -0.365190      4.402936
  C      -1.771924      0.736080      3.729802
  C      -3.583187     -0.454711      4.418028
  O      -2.834715      1.518447      3.457252
  O      -0.646654      1.002713      3.420272
  H      -4.836721      1.043744      3.375980
  H      -3.886590     -1.181778      3.663999
  O      -5.082392      2.688123      1.383118
  C      -4.059361      3.299743      1.296727
  O      -3.125799      3.099565      0.344081
  O      -3.682760      4.286165      2.138261
  C      -2.063008      4.064264      0.483880
  C      -2.310582      4.638281      1.879681
  H      -1.110039      3.547390      0.394031
  H      -2.172290      4.808436     -0.306853
  H      -2.216665      5.720786      1.931613
  H      -1.685194      4.169820      2.639849
58
Coordinates from ORCA-job honokiol2-opt_EC2_closer E -1531.733045362401
  O       0.675509      2.087293      1.109181
  O      -3.653718     -2.486084      1.271238
  C       1.276636     -0.002897      0.009633
  C      -0.019520     -0.656929      0.340346
  C      -2.447929     -0.767821      0.045359
  C      -1.210595     -0.181966     -0.213448
  C       3.455193     -0.115336     -1.101018
  C       2.250729     -0.698151     -0.709257
  C       1.547280      1.327320      0.375780
  C      -0.087723     -1.771540      1.177881
  C      -2.479669     -1.876582      0.904910
  C      -3.714004     -0.208295     -0.573246
  C       4.480312     -0.909291     -1.889270
  C       3.675625      1.216495     -0.756821
  C      -1.304797     -2.375315      1.457748
  C       2.737215      1.928294     -0.021791
  C      -4.488543     -1.211912     -1.387447
  C       3.997547     -1.323374     -3.252366
  C      -5.779427     -1.492397     -1.228001
  C       3.939369     -2.573348     -3.696051
  H      -1.175715      0.677534     -0.872516
  H       2.041087     -1.722728     -0.995729
  H       0.817519     -2.160515      1.627104
  H      -4.365959      0.219139      0.194975
  H      -3.431506      0.626833     -1.219136
  H       4.778681     -1.800916     -1.329295
  H       5.379907     -0.294938     -2.001303
  H       4.599801      1.701913     -1.050059
  H      -1.363570     -3.233894      2.114352
  H       2.922591      2.952299      0.276934
  H      -3.924108     -1.734304     -2.156288
  H       3.670828     -0.513693     -3.900561
  H       0.198915      1.547872      1.765442
  H      -4.336882     -2.308532      0.606694
  H      -6.283584     -2.218262     -1.853740
  H      -6.382079     -0.986098     -0.480749
  H       3.582718     -2.807110     -4.691520
  H       4.248587     -3.410287     -3.078795
  H      -4.251020      1.569698      4.940107
  H      -3.924095     -0.791079      5.360792
  C      -4.030167      0.978258      4.050458
  O      -2.165635     -0.372736      4.367223
  C      -1.787005      0.731264      3.703354
  C      -3.607313     -0.454532      4.376372
  O      -2.844425      1.521667      3.432794
  O      -0.659224      0.992912      3.398609
  H      -4.848541      1.057980      3.340276
  H      -3.911977     -1.174484      3.616041
  O      -5.065889      2.706494      1.345585
  C      -4.046354      3.326888      1.286257
  O      -3.096049      3.149665      0.345738
  O      -3.690933      4.301801      2.150091
  C      -2.043190      4.119924      0.518758
  C      -2.317525      4.668368      1.919810
  H      -1.084860      3.611971      0.435652
  H      -2.145660      4.876540     -0.261013
  H      -2.232717      5.750495      1.991490
  H      -1.700851      4.191736      2.682025
58
Coordinates from ORCA-job honokiol2-opt_EC2_closer E -1531.733042897219
  O       0.676035      2.088359      1.101078
  O      -3.657612     -2.488368      1.253607
  C       1.276728     -0.005423      0.007021
  C      -0.020732     -0.657837      0.335772
  C      -2.448413     -0.767823      0.034250
  C      -1.210263     -0.181878     -0.220473
  C       3.455720     -0.120991     -1.102605
  C       2.250795     -0.702409     -0.710235
  C       1.547731      1.325528      0.370494
  C      -0.091411     -1.773405      1.171804
  C      -2.482534     -1.878119      0.891724
  C      -3.712784     -0.206879     -0.586643
  C       4.480791     -0.917065     -1.888772
  C       3.676330      1.211575     -0.761497
  C      -1.309266     -2.377615      1.447237
  C       2.737722      1.925361     -0.028670
  C      -4.484759     -1.208378     -1.405876
  C       3.998609     -1.333173     -3.251466
  C      -5.776147     -1.489264     -1.251292
  C       3.939706     -2.583882     -3.692975
  H      -1.173367      0.678023     -0.878939
  H       2.040676     -1.727342     -0.995085
  H       0.812625     -2.163481      1.622471
  H      -4.367171      0.218176      0.180868
  H      -3.428625      0.630124     -1.229384
  H       4.778094     -1.807930     -1.327029
  H       5.380924     -0.303590     -2.001262
  H       4.600686      1.696112     -1.055610
  H      -1.369886     -3.237261      2.102248
  H       2.923183      2.950098      0.267484
  H      -3.917894     -1.728711     -2.174302
  H       3.673008     -0.524367     -3.901316
  H       0.201086      1.552819      1.761815
  H      -4.338736     -2.310135      0.587130
  H      -6.278299     -2.213480     -1.880527
  H      -6.381219     -0.984832     -0.504733
  H       3.583549     -2.819113     -4.688276
  H       4.247826     -3.419980     -3.074034
  H      -4.244012      1.587644      4.946607
  H      -3.903454     -0.766130      5.394342
  C      -4.021993      0.986967      4.063411
  O      -2.149924     -0.351209      4.390776
  C      -1.778441      0.747105      3.713625
  C      -3.591138     -0.439805      4.405070
  O      -2.840358      1.529342      3.436996
  O      -0.652685      1.010739      3.403064
  H      -4.842427      1.054189      3.354311
  H      -3.894434     -1.170199      3.654257
  O      -5.055779      2.665483      1.338109
  C      -4.046160      3.302555      1.287129
  O      -3.083989      3.139111      0.356146
  O      -3.714628      4.284432      2.152650
  C      -2.049112      4.127221      0.537124
  C      -2.345342      4.673248      1.934567
  H      -1.081611      3.635514      0.463865
  H      -2.157038      4.880824     -0.244858
  H      -2.279014      5.756722      2.005180
  H      -1.727880      4.208108      2.703217
