! OPT B3LYP def2-TZVP TightSCF

%maxcore 5000

%pal
nprocs 25
end

* xyz 0 1
O           1.03239556855088      1.39118896186682      2.41628930329121
  O          -3.86229405461860     -2.56423752853237      1.79292920071237
  C           1.02889235234347     -0.04706558015220      0.44249285668701
  C          -0.25782263444631     -0.70687523725876      0.78452443518750
  C          -2.54640492913649     -1.32098949583434      0.16765707408712
  C          -1.32666299038202     -0.70892635852177     -0.11421954207293
  C           2.94072327027883      0.13637838003514     -1.07830821709865
  C           1.70786923572465     -0.40652125295065     -0.72483298510722
  C           1.60623197677605      0.93298758313726      1.27275762965777
  C          -0.43150839489910     -1.37077531221659      2.00239113088936
  C          -2.68466607212988     -1.97567792051986      1.39957323252059
  C          -3.70060757964319     -1.23382984199489     -0.81093161035034
  C           3.64542597513256     -0.29784263997960     -2.34991293780707
  C           3.50169964292884      1.08097683310917     -0.22024534952231
  C          -1.62660248237042     -2.00645161238788      2.30191901415874
  C           2.84347700204927      1.47786655263273      0.93393299418126
  C          -4.21306821155674     -2.57226828014055     -1.27557008665216
  C           2.91231950598482      0.09659354683895     -3.60261294333917
  C          -5.47746489505875     -2.97824753888933     -1.19554711487436
  C           2.50887611151236     -0.74145047399395     -4.55036698917861
  H          -1.21554769508706     -0.18568757290668     -1.05718095016981
  H           1.25992728400690     -1.15887461479465     -1.36473833761201
  H           0.38052593130284     -1.39934716151426      2.71762279656623
  H          -4.52628026619076     -0.66303363541535     -0.37165419091252
  H          -3.36126241763514     -0.66624126662640     -1.68208688965140
  H           3.79585339017294     -1.38191195403540     -2.34924266507577
  H           4.64195791425502      0.15600206184814     -2.36315292391868
  H           4.46440575754584      1.51933959796466     -0.45898082520538
  H          -1.75258870752415     -2.53955535352029      3.23587716505455
  H           3.26695740821397      2.22919944419965      1.58816500019169
  H          -3.46732816372200     -3.24011274659303     -1.69951715814190
  H           2.70455021121942      1.15866958121761     -3.70944575248625
  H           0.06855429028628      1.26543901693072      2.43299895193740
  H          -4.38842016201395     -2.79738768433663      1.01358037087537
  H          -5.78472852491821     -3.95261141872224     -1.55393497968880
  H          -6.25488827786505     -2.33995049253150     -0.78731465088549
  H           1.98592406851091     -0.39264824363426     -5.43234700869308
  H           2.69078041778262     -1.80880860015065     -4.48022136849594
  H          -5.54765184620851      1.42634597790392      4.12140178059540
  H          -4.27971224925022      0.11235382879859      5.70462501635075
  C          -4.94404687128811      0.63874499431214      3.66761765909007
  O          -2.74429970570607      0.59144185452264      4.41800539911640
  C          -2.78424707250996      1.23933055156035      3.23565395035208
  C          -4.00717937748606     -0.04992511887156      4.66404317195975
  O          -4.03688144279020      1.24261869620529      2.73081361802190
  O          -1.84473086119596      1.75083679923349      2.70650314072698
  H          -5.58351996566616     -0.05794159906095      3.13050543187934
  H          -3.89995812147928     -1.11637124003065      4.46574189904897
*
