! B3LYP def2-TZVP TightSCF CPCM(water) Freq

%maxcore 5000

%pal
nprocs 25
end

* xyz 0 1
O           1.56925132208646      1.73146329795256      2.26339267307623
  O          -3.67103881381609     -1.78396674684408      2.24919568240394
  C           1.32298214750540      0.15813177817813      0.41244170819831
  C           0.01026992218601     -0.35715263102463      0.88066709912023
  C          -2.36204708261546     -0.78977647212764      0.45531954565843
  C          -1.11479017457772     -0.31582183056675      0.05372457907485
  C           3.13777935572227      0.06760706975248     -1.22915047093636
  C           1.89178328608903     -0.34252416533483     -0.76145635854118
  C           2.03050731405997      1.14262913568656      1.12767866682581
  C          -0.13609279905636     -0.92391087479348      2.15003482413752
  C          -2.47206312298177     -1.34525329562248      1.73771784752254
  C          -3.56880435061691     -0.66444354841807     -0.45273250152919
  C           3.72300519123121     -0.51977587943278     -2.49994287598414
  C           3.82673380288089      1.02301911509640     -0.48352774522334
  C          -1.36042228456200     -1.42152720810639      2.56972774508222
  C           3.28103388153744      1.55711767282999      0.67401631009486
  C          -4.22421413155372     -1.98077492628773     -0.78130137904200
  C           2.91192762594487     -0.21446696844266     -3.72903572697175
  C          -5.50923916201718     -2.26582563542799     -0.58746124541235
  C           2.40237708369532     -1.12071109497327     -4.55506659877773
  H          -1.02266738422436      0.13076146343937     -0.92977814064230
  H           1.34379380613431     -1.09859688785206     -1.31304991894630
  H           0.71893096817106     -0.98759819233246      2.81102037673529
  H          -4.31096569981778      0.00634830650246     -0.00608647870050
  H          -3.24415115181367     -0.19087736645252     -1.38353423329186
  H           3.83031433194644     -1.60467295040337     -2.40185400108893
  H           4.73297255457291     -0.11739316574841     -2.63161022118056
  H           4.80270232246709      1.36111096795762     -0.81368149477096
  H          -1.46803873498969     -1.87987692977737      3.54473428014979
  H           3.80528949588293      2.31607526262915      1.24052339530852
  H          -3.57065985787195     -2.74012220185047     -1.20342210391636
  H           2.74099014027708      0.84093428089240     -3.92765056945250
  H           0.60856875158055      1.64263749729515      2.36699536143964
  H          -4.26227907495831     -2.04122828048572      1.52540067029337
  H          -5.92260738968931     -3.23108895139129     -0.85125228907245
  H          -6.19906749750153     -1.53394745339190     -0.17882590813283
  H           1.82870563313175     -0.83492271959328     -5.42810316091907
  H           2.54508357275352     -2.18357786196266     -4.39030258653011
  H          -5.18160095169991      0.83661286613300      3.39103768289815
  H          -3.56572127683955     -0.34800708850068      4.75883281321729
  O          -2.24043083840206      1.23182418602842      4.61761028598793
  C          -3.55422763514577      0.73179580239404      4.90443445580048
  C          -4.43171102580495      1.44986286625846      3.88505592719887
  C          -2.24369105284293      1.85875957579859      3.42854626620275
  O          -1.29016003444481      2.29030360260618      2.86627729730657
  O          -3.51945712775260      1.92885970602518      2.93553582011413
  F          -5.07959408208480      2.51980255730538      4.46300717290054
  H          -3.82160566877522      0.99266332518347      5.92574865541446
*
