38
Coordinates from ORCA-job honokiol3 E -846.966638793367
  O       1.591868      1.350448      2.431193
  O      -3.682644     -2.210100      2.165765
  C       1.283569     -0.079249      0.491588
  C      -0.017865     -0.622092      0.957256
  C      -2.345144     -1.172860      0.425233
  C      -1.106893     -0.642208      0.081410
  C       2.983360      0.016406     -1.265054
  C       1.791876     -0.475574     -0.745833
  C       2.019658      0.859714      1.232272
  C      -0.205394     -1.161360      2.234960
  C      -2.500311     -1.700866      1.716647
  C      -3.487358     -1.144149     -0.572321
  C       3.420998     -0.411446     -2.653893
  C       3.701225      0.929765     -0.495961
  C      -1.432075     -1.692621      2.608150
  C       3.225511      1.348268      0.739804
  C      -4.082946     -2.496321     -0.870628
  C       2.752905      0.419034     -3.720614
  C      -5.373643     -2.801895     -0.771293
  C       1.754072      0.004951     -4.490803
  H      -0.984318     -0.213773     -0.906299
  H       1.228002     -1.202585     -1.318779
  H       0.625172     -1.209971      2.929286
  H      -4.276908     -0.469778     -0.224960
  H      -3.101212     -0.724678     -1.506598
  H       3.176684     -1.464312     -2.807333
  H       4.506968     -0.318898     -2.744018
  H       4.641973      1.324985     -0.862602
  H      -1.577194     -2.126560      3.589119
  H       3.772449      2.069498      1.333410
  H      -3.380343     -3.261586     -1.190363
  H       3.106449      1.442071     -3.819049
  H       0.707600      1.012735      2.623030
  H      -4.252723     -2.449397      1.421202
  H      -5.741578     -3.791192     -1.012033
  H      -6.110019     -2.067484     -0.460965
  H       1.290738      0.659012     -5.219203
  H       1.352556     -0.999942     -4.413961
38
Coordinates from ORCA-job honokiol3 E -846.967668288495
  O       1.501622      1.357901      2.402525
  O      -3.648719     -2.307701      2.200325
  C       1.247753     -0.067545      0.449632
  C      -0.036313     -0.649519      0.919383
  C      -2.383928     -1.185331      0.456453
  C      -1.158038     -0.641459      0.083070
  C       2.983465      0.060028     -1.274031
  C       1.784568     -0.449413     -0.783090
  C       1.955088      0.882862      1.205623
  C      -0.178796     -1.235203      2.183335
  C      -2.486979     -1.770865      1.728613
  C      -3.575953     -1.101337     -0.477623
  C       3.494764     -0.377991     -2.635425
  C       3.666264      0.987779     -0.489654
  C      -1.386605     -1.790809      2.579630
  C       3.157697      1.398518      0.734433
  C      -4.186029     -2.435400     -0.823071
  C       2.864270      0.409028     -3.756300
  C      -5.469567     -2.750784     -0.673961
  C       1.988823     -0.075360     -4.628962
  H      -1.077155     -0.167573     -0.888226
  H       1.251406     -1.193601     -1.363377
  H       0.674933     -1.302552      2.847383
  H      -4.347812     -0.452348     -0.049561
  H      -3.241662     -0.622911     -1.402642
  H       3.294273     -1.441890     -2.782295
  H       4.580803     -0.251087     -2.671068
  H       4.610804      1.394902     -0.832818
  H      -1.492905     -2.262178      3.548218
  H       3.680396      2.127755      1.340017
  H      -3.500061     -3.178807     -1.221458
  H       3.143097      1.458111     -3.814665
  H       0.619106      1.004528      2.575937
  H      -4.247346     -2.511935      1.467186
  H      -5.849137     -3.726163     -0.950944
  H      -6.189409     -2.037771     -0.284709
  H       1.550055      0.548095     -5.398231
  H       1.682292     -1.115985     -4.611889
38
Coordinates from ORCA-job honokiol3 E -846.968185692275
  O       1.450879      1.343040      2.392303
  O      -3.629507     -2.361426      2.230714
  C       1.222836     -0.067923      0.424560
  C      -0.055356     -0.659263      0.897491
  C      -2.415939     -1.180516      0.487062
  C      -1.199587     -0.627144      0.092682
  C       2.972900      0.083889     -1.282576
  C       1.771337     -0.437534     -0.807550
  C       1.914161      0.886738      1.190904
  C      -0.164616     -1.279500      2.148592
  C      -2.483156     -1.804925      1.743600
  C      -3.641389     -1.063309     -0.398349
  C       3.529496     -0.346924     -2.627520
  C       3.637531      1.016613     -0.487336
  C      -1.359956     -1.846231      2.563940
  C       3.113573      1.419846      0.731765
  C      -4.246854     -2.384946     -0.795772
  C       2.912938      0.400996     -3.780202
  C      -5.519535     -2.727699     -0.616767
  C       2.190399     -0.148194     -4.749156
  H      -1.144273     -0.132025     -0.870408
  H       1.245865     -1.178171     -1.400314
  H       0.704951     -1.356429      2.790636
  H      -4.406072     -0.452321      0.094335
  H      -3.350970     -0.524956     -1.304935
  H       3.376510     -1.419779     -2.771174
  H       4.611115     -0.177745     -2.629224
  H       4.581052      1.434519     -0.820169
  H      -1.438748     -2.341841      3.523016
  H       3.622336      2.152992      1.344521
  H      -3.566570     -3.094233     -1.260871
  H       3.072666      1.476521     -3.783561
  H       0.574973      0.969221      2.559467
  H      -4.250723     -2.535077      1.508229
  H      -5.896638     -3.692034     -0.933063
  H      -6.233528     -2.048520     -0.161722
  H       1.758450      0.448265     -5.543258
  H       2.014513     -1.217986     -4.792128
38
Coordinates from ORCA-job honokiol3 E -846.968298659026
  O       1.435970      1.348858      2.389886
  O      -3.620411     -2.389355      2.226273
  C       1.219870     -0.068637      0.424674
  C      -0.058506     -0.660694      0.896588
  C      -2.421840     -1.172067      0.497724
  C      -1.207960     -0.615189      0.101385
  C       2.969401      0.090575     -1.280224
  C       1.770254     -0.436147     -0.806376
  C       1.905440      0.889801      1.191952
  C      -0.157925     -1.301363      2.138459
  C      -2.479564     -1.818258      1.743445
  C      -3.654841     -1.042784     -0.374637
  C       3.531475     -0.332861     -2.624126
  C       3.628768      1.027382     -0.484828
  C      -1.350294     -1.873279      2.555010
  C       3.102795      1.428949      0.733916
  C      -4.259020     -2.359323     -0.790427
  C       2.895374      0.388916     -3.781694
  C      -5.529015     -2.709014     -0.606605
  C       2.250596     -0.193120     -4.785690
  H      -1.159000     -0.108204     -0.855858
  H       1.245290     -1.174851     -1.402098
  H       0.717057     -1.388465      2.771775
  H      -4.417386     -0.444871      0.137061
  H      -3.376016     -0.484947     -1.273260
  H       3.408971     -1.410501     -2.761935
  H       4.608336     -0.133451     -2.627376
  H       4.569072      1.451291     -0.819138
  H      -1.420901     -2.385858      3.505762
  H       3.606090      2.166715      1.345607
  H      -3.580039     -3.058585     -1.272085
  H       2.975519      1.473194     -3.760467
  H       0.562788      0.968504      2.556612
  H      -4.244887     -2.550880      1.504244
  H      -5.905740     -3.669440     -0.934860
  H      -6.241644     -2.039212     -0.135619
  H       1.806825      0.384781     -5.586927
  H       2.150162     -1.271622     -4.848378
38
Coordinates from ORCA-job honokiol3 E -846.968340816560
  O       1.442388      1.341796      2.399153
  O      -3.620028     -2.385507      2.226147
  C       1.222862     -0.068037      0.429738
  C      -0.056598     -0.659373      0.900587
  C      -2.419486     -1.167047      0.500073
  C      -1.205535     -0.609309      0.106130
  C       2.968609      0.093997     -1.277246
  C       1.770998     -0.433767     -0.802025
  C       1.909635      0.887558      1.198815
  C      -0.155960     -1.302943      2.140905
  C      -2.478017     -1.816608      1.743945
  C      -3.650966     -1.036230     -0.374229
  C       3.523106     -0.322887     -2.625759
  C       3.630237      1.028309     -0.480586
  C      -1.349089     -1.874393      2.556196
  C       3.107454      1.426485      0.740930
  C      -4.250756     -2.352153     -0.798859
  C       2.859397      0.381139     -3.778556
  C      -5.521040     -2.704497     -0.622378
  C       2.250039     -0.219308     -4.793785
  H      -1.155968     -0.099498     -0.849530
  H       1.243851     -1.170030     -1.398835
  H       0.719153     -1.390491      2.774000
  H      -4.416070     -0.443206      0.139208
  H      -3.371867     -0.472555     -1.269234
  H       3.421104     -1.403309     -2.758730
  H       4.595773     -0.101996     -2.642354
  H       4.569750      1.452672     -0.816515
  H      -1.420376     -2.388784      3.505886
  H       3.612689      2.161587      1.354172
  H      -3.568459     -3.048073     -1.280551
  H       2.890549      1.467651     -3.745411
  H       0.572059      0.956303      2.568835
  H      -4.245048     -2.545190      1.504241
  H      -5.894951     -3.664002     -0.956498
  H      -6.236805     -2.037726     -0.151875
  H       1.789849      0.345916     -5.594761
  H       2.192583     -1.300503     -4.863481
38
Coordinates from ORCA-job honokiol3 E -846.968361257423
  O       1.452589      1.337970      2.409749
  O      -3.620545     -2.383054      2.216590
  C       1.228050     -0.065298      0.436798
  C      -0.052588     -0.656732      0.905392
  C      -2.414058     -1.162679      0.496779
  C      -1.198816     -0.604669      0.107633
  C       2.970072      0.099755     -1.273385
  C       1.772825     -0.427661     -0.797081
  C       1.917953      0.885849      1.208224
  C      -0.155146     -1.302980      2.144026
  C      -2.476626     -1.813822      1.739351
  C      -3.641590     -1.032274     -0.383004
  C       3.515261     -0.312653     -2.626845
  C       3.635659      1.029110     -0.474449
  C      -1.350021     -1.874474      2.554687
  C       3.116507      1.423350      0.750154
  C      -4.240286     -2.348970     -0.807030
  C       2.822109      0.373076     -3.773564
  C      -5.511831     -2.699343     -0.635884
  C       2.227281     -0.244152     -4.787356
  H      -1.146205     -0.092746     -0.846694
  H       1.243322     -1.161412     -1.394889
  H       0.718863     -1.393007      2.778293
  H      -4.408434     -0.437632      0.125867
  H      -3.357889     -0.471192     -1.278198
  H       3.432342     -1.395520     -2.753566
  H       4.583205     -0.071701     -2.660062
  H       4.575251      1.452610     -0.811214
  H      -1.424359     -2.391340      3.502788
  H       3.624885      2.154641      1.365326
  H      -3.556344     -3.046831     -1.283495
  H       2.819898      1.459905     -3.737856
  H       0.583011      0.951690      2.581128
  H      -4.242470     -2.543626      1.492260
  H      -5.885370     -3.659169     -0.969535
  H      -6.228983     -2.030579     -0.170393
  H       1.747581      0.308078     -5.585925
  H       2.199960     -1.326527     -4.856858
38
Coordinates from ORCA-job honokiol3 E -846.968376225710
  O       1.464173      1.329993      2.422118
  O      -3.620744     -2.379152      2.208906
  C       1.233192     -0.062353      0.442464
  C      -0.047960     -0.654963      0.908599
  C      -2.408351     -1.160373      0.492302
  C      -1.191896     -0.601857      0.107467
  C       2.972183      0.108965     -1.270709
  C       1.774685     -0.418811     -0.794602
  C       1.926840      0.882692      1.217954
  C      -0.153940     -1.302492      2.146214
  C      -2.474642     -1.811874      1.734456
  C      -3.632670     -1.029038     -0.391974
  C       3.510462     -0.298975     -2.628250
  C       3.641657      1.031561     -0.467644
  C      -1.350291     -1.874045      2.552682
  C       3.125944      1.419441      0.760583
  C      -4.231249     -2.345485     -0.817172
  C       2.787196      0.364118     -3.769960
  C      -5.503944     -2.694033     -0.650783
  C       2.198803     -0.272680     -4.775412
  H      -1.136501     -0.088395     -0.845848
  H       1.242929     -1.148804     -1.394957
  H       0.718742     -1.394251      2.782059
  H      -4.400716     -0.432930      0.113297
  H      -3.344519     -0.469636     -1.286747
  H       3.450591     -1.384303     -2.747583
  H       4.572164     -0.034525     -2.677741
  H       4.581609      1.454624     -0.803914
  H      -1.427746     -2.391813      3.500035
  H       3.637613      2.145633      1.379050
  H      -3.546404     -3.044454     -1.290708
  H       2.757026      1.450604     -3.738046
  H       0.594545      0.944133      2.593936
  H      -4.240483     -2.540847      1.482905
  H      -5.877568     -3.653470     -0.985480
  H      -6.221832     -2.024164     -0.188075
  H       1.697142      0.263627     -5.571351
  H       2.199026     -1.355678     -4.840306
38
Coordinates from ORCA-job honokiol3 E -846.968397670624
  O       1.481082      1.313101      2.442951
  O      -3.618592     -2.379756      2.193650
  C       1.240575     -0.057179      0.448963
  C      -0.040789     -0.652820      0.910486
  C      -2.400411     -1.156003      0.484869
  C      -1.182626     -0.595955      0.106067
  C       2.975776      0.129281     -1.267553
  C       1.777640     -0.400756     -0.793841
  C       1.939541      0.876914      1.233213
  C      -0.150484     -1.305847      2.144817
  C      -2.470364     -1.812276      1.724288
  C      -3.621842     -1.020229     -0.402844
  C       3.507672     -0.270173     -2.630143
  C       3.650109      1.040023     -0.455834
  C      -1.348250     -1.878979      2.544957
  C       3.138871      1.414744      0.778485
  C      -4.221785     -2.334728     -0.832264
  C       2.734051      0.345110     -3.765846
  C      -5.495505     -2.681381     -0.669561
  C       2.158031     -0.330574     -4.752998
  H      -1.124455     -0.077805     -0.844482
  H       1.242784     -1.122942     -1.400687
  H       0.720854     -1.402147      2.781830
  H      -4.390290     -0.423254      0.100717
  H      -3.329070     -0.460600     -1.295905
  H       3.495663     -1.358703     -2.735719
  H       4.555054      0.041254     -2.704343
  H       4.590349      1.464180     -0.789867
  H      -1.428901     -2.401143      3.489641
  H       3.654620      2.132305      1.403637
  H      -3.537157     -3.033711     -1.306122
  H       2.654766      1.429359     -3.745681
  H       0.610732      0.928408      2.613485
  H      -4.235618     -2.540288      1.465046
  H      -5.870202     -3.639226     -1.007635
  H      -6.213028     -2.011480     -0.206362
  H       1.618109      0.172315     -5.545742
  H       2.208152     -1.413048     -4.805908
38
Coordinates from ORCA-job honokiol3 E -846.968417182902
  O       1.496696      1.290772      2.465988
  O      -3.612471     -2.388570      2.176554
  C       1.247384     -0.051059      0.453181
  C      -0.033316     -0.651636      0.909308
  C      -2.393423     -1.150421      0.478570
  C      -1.175417     -0.587049      0.105193
  C       2.978733      0.158065     -1.265683
  C       1.780233     -0.376692     -0.796414
  C       1.950993      0.870201      1.249105
  C      -0.143533     -1.316569      2.137198
  C      -2.463603     -1.818154      1.711959
  C      -3.614928     -1.004866     -0.407603
  C       3.508694     -0.230000     -2.632462
  C       3.656776      1.055190     -0.442701
  C      -1.341464     -1.893255      2.531582
  C       3.149556      1.412295      0.798610
  C      -4.216778     -2.314453     -0.849183
  C       2.678297      0.316405     -3.763213
  C      -5.490561     -2.661739     -0.688128
  C       2.123129     -0.411271     -4.725089
  H      -1.117148     -0.059734     -0.840259
  H       1.242552     -1.088566     -1.412729
  H       0.727892     -1.420413      2.772909
  H      -4.382563     -0.411332      0.101203
  H      -3.321078     -0.437939     -1.295653
  H       3.563685     -1.318998     -2.720866
  H       4.532970      0.144489     -2.732470
  H       4.596515      1.483088     -0.773238
  H      -1.422570     -2.424435      3.471200
  H       3.668112      2.120413      1.432182
  H      -3.533429     -3.009173     -1.331132
  H       2.536837      1.394481     -3.761841
  H       0.624948      0.907725      2.632915
  H      -4.229159     -2.542883      1.446240
  H      -5.866519     -3.615814     -1.035330
  H      -6.206813     -1.995972     -0.217069
  H       1.539047      0.043520     -5.515601
  H       2.236789     -1.489660     -4.759471
38
Coordinates from ORCA-job honokiol3 E -846.968430752432
  O       1.496437      1.283432      2.469843
  O      -3.608529     -2.397326      2.172889
  C       1.246784     -0.049352      0.450588
  C      -0.033258     -0.651603      0.905612
  C      -2.394510     -1.148610      0.478780
  C      -1.177619     -0.583308      0.104904
  C       2.978671      0.167244     -1.266765
  C       1.779782     -0.369194     -0.800432
  C       1.950311      0.868773      1.250574
  C      -0.140521     -1.322677      2.130469
  C      -2.461378     -1.823064      1.708791
  C      -3.618842     -0.998627     -0.402661
  C       3.514324     -0.217887     -2.632409
  C       3.656256      1.061251     -0.439935
  C      -1.337164     -1.901636      2.525226
  C       3.148511      1.413409      0.802547
  C      -4.221287     -2.305745     -0.850471
  C       2.675898      0.307967     -3.766514
  C      -5.494056     -2.655460     -0.686799
  C       2.124696     -0.435095     -4.718857
  H      -1.121891     -0.051771     -0.838365
  H       1.241962     -1.077582     -1.420612
  H       0.732111     -1.429118      2.764095
  H      -4.385234     -0.408842      0.112388
  H      -3.328460     -0.425679     -1.288012
  H       3.589130     -1.306193     -2.715737
  H       4.531888      0.174336     -2.732739
  H       4.595671      1.491337     -0.768514
  H      -1.415566     -2.437480      3.462421
  H       3.666242      2.119757      1.438755
  H      -3.539022     -2.996777     -1.339206
  H       2.523811      1.384598     -3.776274
  H       0.623487      0.901689      2.633676
  H      -4.227103     -2.546641      1.443147
  H      -5.870180     -3.607834     -1.038436
  H      -6.209391     -1.993325     -0.209237
  H       1.533458      0.005545     -5.512072
  H       2.249645     -1.512524     -4.742894
38
Coordinates from ORCA-job honokiol3 E -846.968438275308
  O       1.494235      1.277590      2.472446
  O      -3.603251     -2.408795      2.169477
  C       1.246219     -0.048162      0.447980
  C      -0.033379     -0.651830      0.901973
  C      -2.395975     -1.146058      0.480688
  C      -1.180582     -0.578295      0.106160
  C       2.978147      0.175784     -1.267667
  C       1.779686     -0.362976     -0.803849
  C       1.948533      0.868053      1.251442
  C      -0.136294     -1.331340      2.122625
  C      -2.458394     -1.829668      1.705977
  C      -3.623899     -0.990189     -0.394644
  C       3.520125     -0.205286     -2.632236
  C       3.654375      1.068426     -0.437876
  C      -1.331274     -1.913122      2.518105
  C       3.145946      1.416234      0.805568
  C      -4.226050     -2.294001     -0.852201
  C       2.673201      0.297285     -3.769784
  C      -5.497618     -2.647301     -0.687113
  C       2.129598     -0.462471     -4.713268
  H      -1.128319     -0.040908     -0.834046
  H       1.241962     -1.068344     -1.427587
  H       0.738072     -1.441053      2.753224
  H      -4.389120     -0.406537      0.129164
  H      -3.338424     -0.407995     -1.275621
  H       3.617601     -1.292287     -2.710314
  H       4.529699      0.207128     -2.732025
  H       4.592809      1.501610     -0.765140
  H      -1.405857     -2.455315      3.451939
  H       3.661950      2.122042      1.443781
  H      -3.544379     -2.979622     -1.349321
  H       2.506666      1.371695     -3.790476
  H       0.620305      0.896624      2.633007
  H      -4.224853     -2.550950      1.440893
  H      -5.873290     -3.597243     -1.045702
  H      -6.212555     -1.990475     -0.201648
  H       1.531119     -0.037839     -5.509757
  H       2.268332     -1.538419     -4.726411
38
Coordinates from ORCA-job honokiol3 E -846.968439020537
  O       1.495078      1.274954      2.474578
  O      -3.601867     -2.411378      2.167116
  C       1.246857     -0.047549      0.448130
  C      -0.032822     -0.651713      0.901491
  C      -2.395559     -1.144818      0.480639
  C      -1.180374     -0.576395      0.106581
  C       2.978150      0.178901     -1.267550
  C       1.780040     -0.360698     -0.804131
  C       1.949079      0.867626      1.252739
  C      -0.135021     -1.333602      2.120897
  C      -2.457365     -1.830992      1.704461
  C      -3.623901     -0.987454     -0.393789
  C       3.520465     -0.200165     -2.632636
  C       3.654395      1.070713     -0.436753
  C      -1.329826     -1.916101      2.515921
  C       3.146329      1.416724      0.807363
  C      -4.225906     -2.290564     -0.853542
  C       2.667461      0.293039     -3.769528
  C      -5.497473     -2.644172     -0.689122
  C       2.128049     -0.473125     -4.710237
  H      -1.128599     -0.037177     -0.832599
  H       1.242143     -1.065171     -1.428757
  H       0.739647     -1.444278      2.750938
  H      -4.388968     -0.405097      0.131667
  H      -3.339136     -0.403326     -1.273708
  H       3.627034     -1.286489     -2.708928
  H       4.526411      0.220453     -2.734540
  H       4.592539      1.504654     -0.763806
  H      -1.403826     -2.460196      3.448701
  H       3.662298      2.121778      1.446408
  H      -3.544146     -2.975372     -1.351629
  H       2.492308      1.366040     -3.792464
  H       0.621302      0.893425      2.634760
  H      -4.223960     -2.551626      1.438635
  H      -5.873060     -3.593575     -1.049244
  H      -6.212513     -1.988160     -0.202705
  H       1.524953     -0.055085     -5.506724
  H       2.274846     -1.548037     -4.720869
38
Coordinates from ORCA-job honokiol3 E -846.968439209995
  O       1.495251      1.274496      2.475349
  O      -3.601029     -2.412639      2.166226
  C       1.247302     -0.047179      0.448457
  C      -0.032384     -0.651801      0.901537
  C      -2.395159     -1.144349      0.480800
  C      -1.180070     -0.575474      0.107081
  C       2.978106      0.180342     -1.267433
  C       1.780293     -0.359752     -0.804006
  C       1.949329      0.867737      1.253386
  C      -0.134120     -1.335158      2.120176
  C      -2.456645     -1.831893      1.703832
  C      -3.623682     -0.986018     -0.393213
  C       3.520425     -0.197868     -2.632829
  C       3.654271      1.072026     -0.436343
  C      -1.328860     -1.918031      2.514899
  C       3.146435      1.417344      0.808049
  C      -4.225510     -2.288678     -0.854548
  C       2.664189      0.290744     -3.769166
  C      -5.497204     -2.642301     -0.691142
  C       2.126743     -0.478594     -4.708421
  H      -1.128555     -0.035131     -0.831463
  H       1.242429     -1.064154     -1.428746
  H       0.740780     -1.446500      2.749775
  H      -4.388739     -0.404505      0.133186
  H      -3.339226     -0.400640     -1.272396
  H       3.631326     -1.283849     -2.708186
  H       4.524603      0.226627     -2.735981
  H       4.592211      1.506361     -0.763462
  H      -1.402546     -2.463188      3.447081
  H       3.662326      2.122236      1.447334
  H      -3.543565     -2.973037     -1.352986
  H       2.484621      1.362991     -3.793170
  H       0.621711      0.892438      2.635555
  H      -4.223638     -2.551737      1.437978
  H      -5.872713     -3.591292     -1.052442
  H      -6.212420     -1.986759     -0.204357
  H       1.521173     -0.063866     -5.504762
  H       2.277607     -1.552958     -4.717887
38
Coordinates from ORCA-job honokiol3 E -846.968439302370
  O       1.495699      1.273363      2.476507
  O      -3.600233     -2.414033      2.164884
  C       1.247694     -0.046690      0.448661
  C      -0.031924     -0.651874      0.901381
  C      -2.394755     -1.143897      0.480630
  C      -1.179721     -0.574625      0.107248
  C       2.978096      0.182309     -1.267390
  C       1.780471     -0.358330     -0.804143
  C       1.949662      0.867654      1.254184
  C      -0.133345     -1.336505      2.119338
  C      -2.455975     -1.832734      1.702913
  C      -3.623454     -0.984661     -0.392964
  C       3.520516     -0.195078     -2.633032
  C       3.654249      1.073496     -0.435716
  C      -1.328014     -1.919798      2.513666
  C       3.146653      1.417764      0.809044
  C      -4.225444     -2.286910     -0.855289
  C       2.660857      0.288412     -3.768905
  C      -5.497260     -2.640316     -0.692381
  C       2.125597     -0.484477     -4.706509
  H      -1.128391     -0.033274     -0.830725
  H       1.242565     -1.062383     -1.429230
  H       0.741732     -1.448455      2.748574
  H      -4.388358     -0.403604      0.134163
  H      -3.339186     -0.398490     -1.271677
  H       3.636130     -1.280661     -2.707263
  H       4.522746      0.233620     -2.737689
  H       4.592047      1.508222     -0.762732
  H      -1.401476     -2.465970      3.445269
  H       3.662567      2.122216      1.448795
  H      -3.543561     -2.971082     -1.354062
  H       2.476546      1.359824     -3.794170
  H       0.622438      0.890689      2.636745
  H      -4.223144     -2.552167      1.436719
  H      -5.872940     -3.588950     -1.054439
  H      -6.212400     -1.984982     -0.205212
  H       1.517285     -0.073447     -5.502678
  H       2.281098     -1.558189     -4.714753
38
Coordinates from ORCA-job honokiol3 E -846.968439300085
  O       1.495588      1.273394      2.476449
  O      -3.600188     -2.414129      2.164921
  C       1.247650     -0.046667      0.448588
  C      -0.031922     -0.651927      0.901311
  C      -2.394776     -1.143986      0.480605
  C      -1.179751     -0.574690      0.107190
  C       2.978109      0.182407     -1.267421
  C       1.780469     -0.358274     -0.804228
  C       1.949588      0.867677      1.254141
  C      -0.133316     -1.336571      2.119260
  C      -2.455943     -1.832835      1.702889
  C      -3.623525     -0.984700     -0.392913
  C       3.520642     -0.195049     -2.632993
  C       3.654212      1.073586     -0.435708
  C      -1.327963     -1.919886      2.513604
  C       3.146569      1.417822      0.809030
  C      -4.225636     -2.286907     -0.855203
  C       2.661129      0.288453     -3.768984
  C      -5.497459     -2.640244     -0.692192
  C       2.125794     -0.484468     -4.706520
  H      -1.128451     -0.033330     -0.830779
  H       1.242586     -1.062320     -1.429334
  H       0.741786     -1.448527      2.748459
  H      -4.388367     -0.403592      0.134251
  H      -3.339270     -0.398560     -1.271651
  H       3.636185     -1.280642     -2.707166
  H       4.522913      0.233568     -2.737604
  H       4.592004      1.508345     -0.762696
  H      -1.401407     -2.466058      3.445210
  H       3.662444      2.122286      1.448799
  H      -3.543835     -2.971107     -1.354055
  H       2.476986      1.359888     -3.794397
  H       0.622374      0.890623      2.636721
  H      -4.223150     -2.552219      1.436786
  H      -5.873226     -3.588848     -1.054240
  H      -6.212518     -1.984882     -0.204942
  H       1.517544     -0.073445     -5.502741
  H       2.281194     -1.558196     -4.714683
