38
Coordinates from ORCA-job honokiol3 E -846.941606342512
  O       1.825144      1.120636      2.532030
  O      -3.808022     -1.991181      2.144243
  C       1.272509     -0.062199      0.458960
  C      -0.076987     -0.562646      0.898590
  C      -2.407146     -1.146378      0.352697
  C      -1.139129     -0.665208     -0.026037
  C       2.970825      0.021726     -1.325310
  C       1.708998     -0.371147     -0.850965
  C       2.152932      0.688764      1.294322
  C      -0.314039     -0.981084      2.221359
  C      -2.616924     -1.538928      1.696412
  C      -3.499854     -1.221528     -0.693206
  C       3.437623     -0.329123     -2.724290
  C       3.822780      0.729525     -0.469364
  C      -1.565245     -1.457347      2.610439
  C       3.414282      1.060563      0.818801
  C      -3.882415     -2.650847     -0.973713
  C       2.696475      0.411654     -3.812459
  C      -5.134833     -3.095770     -0.835128
  C       1.405233      0.226957     -4.105875
  H      -0.991235     -0.354045     -1.051545
  H       1.080921     -0.960571     -1.496352
  H       0.469754     -0.973732      2.964748
  H      -4.369318     -0.611040     -0.365184
  H      -3.145882     -0.795618     -1.656548
  H       3.383295     -1.426699     -2.887335
  H       4.505241     -0.036640     -2.828936
  H       4.805518      1.041304     -0.801065
  H      -1.717898     -1.770110      3.636133
  H       4.082451      1.630553      1.452892
  H      -3.113801     -3.339384     -1.313031
  H       3.255772      1.126149     -4.410191
  H       0.935586      1.111802      2.902719
  H      -4.604302     -2.042692      1.602628
  H      -5.368769     -4.132491     -1.053945
  H      -5.933096     -2.437169     -0.506984
  H       0.952351      0.794800     -4.912159
  H       0.786271     -0.484868     -3.579589
38
Coordinates from ORCA-job honokiol3 E -846.954434687628
  O       1.775471      1.179989      2.517745
  O      -3.742124     -2.076841      2.150049
  C       1.279256     -0.066114      0.483513
  C      -0.047408     -0.573111      0.932625
  C      -2.369179     -1.144314      0.385742
  C      -1.114349     -0.648599      0.027529
  C       2.961091      0.023705     -1.300634
  C       1.727999     -0.395036     -0.803954
  C       2.118640      0.734761      1.288291
  C      -0.276574     -1.025212      2.238997
  C      -2.567520     -1.580437      1.707899
  C      -3.477556     -1.183677     -0.648829
  C       3.421378     -0.344007     -2.701212
  C       3.781124      0.782248     -0.465404
  C      -1.518637     -1.519145      2.619333
  C       3.360794      1.138081      0.809831
  C      -3.912949     -2.586953     -0.989555
  C       2.677461      0.354411     -3.827172
  C      -5.170366     -3.017531     -0.891773
  C       1.407197      0.144424     -4.168920
  H      -0.978038     -0.292007     -0.984397
  H       1.113030     -1.029749     -1.423658
  H       0.519820     -1.045563      2.970272
  H      -4.332508     -0.588092     -0.307564
  H      -3.117082     -0.714988     -1.572349
  H       3.376432     -1.429884     -2.838657
  H       4.475781     -0.069130     -2.795941
  H       4.751974      1.117576     -0.808773
  H      -1.670419     -1.874513      3.630485
  H       3.997358      1.750602      1.435416
  H      -3.148532     -3.273919     -1.337347
  H       3.238631      1.081471     -4.405658
  H       0.865061      1.096458      2.808189
  H      -4.480296     -2.128585      1.539933
  H      -5.425652     -4.037043     -1.152850
  H      -5.968004     -2.359135     -0.564434
  H       0.967064      0.700659     -4.987671
  H       0.776696     -0.574810     -3.661334
38
Coordinates from ORCA-job honokiol3 E -846.960453620165
  O       1.717279      1.216957      2.505683
  O      -3.689830     -2.160242      2.141573
  C       1.291239     -0.069637      0.488845
  C      -0.017466     -0.588550      0.945300
  C      -2.338434     -1.150708      0.399121
  C      -1.092418     -0.644544      0.056809
  C       2.975127      0.041403     -1.285614
  C       1.763731     -0.407459     -0.779330
  C       2.088407      0.773445      1.276276
  C      -0.240133     -1.068677      2.240407
  C      -2.523396     -1.627886      1.703122
  C      -3.465925     -1.155565     -0.616871
  C       3.436073     -0.341358     -2.680932
  C       3.753745      0.852916     -0.464204
  C      -1.474358     -1.579083      2.614081
  C       3.314403      1.218820      0.800188
  C      -3.966779     -2.528900     -0.987401
  C       2.665754      0.305054     -3.821123
  C      -5.231737     -2.928464     -0.910072
  C       1.412570      0.051254     -4.176699
  H      -0.964314     -0.251612     -0.944548
  H       1.165459     -1.079907     -1.382249
  H       0.568258     -1.100360      2.960994
  H      -4.308556     -0.557618     -0.262069
  H      -3.094497     -0.660884     -1.516006
  H       3.402688     -1.425970     -2.794245
  H       4.483913     -0.066001     -2.775856
  H       4.712809      1.217378     -0.813991
  H      -1.629320     -1.966668      3.612597
  H       3.911600      1.868689      1.426494
  H      -3.213397     -3.227209     -1.340520
  H       3.209635      1.051572     -4.392719
  H       0.791219      1.022590      2.684846
  H      -4.345165     -2.216908      1.438933
  H      -5.523958     -3.930474     -1.194801
  H      -6.018894     -2.258747     -0.578078
  H       0.955391      0.580987     -5.002688
  H       0.794341     -0.681643     -3.667492
38
Coordinates from ORCA-job honokiol3 E -846.961907507458
  O       1.661339      1.294663      2.478803
  O      -3.660298     -2.255145      2.128423
  C       1.296924     -0.069906      0.494613
  C      -0.005038     -0.608839      0.952627
  C      -2.332256     -1.162653      0.409877
  C      -1.091191     -0.638180      0.074086
  C       2.987134      0.051805     -1.276964
  C       1.789357     -0.426518     -0.761989
  C       2.060486      0.826702      1.261036
  C      -0.212144     -1.136590      2.233752
  C      -2.498702     -1.693113      1.697840
  C      -3.472240     -1.124542     -0.590380
  C       3.460017     -0.349367     -2.662284
  C       3.732429      0.914593     -0.475155
  C      -1.439941     -1.667071      2.601165
  C       3.274049      1.301745      0.776231
  C      -4.015560     -2.477388     -0.973011
  C       2.690314      0.275889     -3.812625
  C      -5.291979     -2.838967     -0.901745
  C       1.454596     -0.019637     -4.196410
  H      -0.974213     -0.206182     -0.913056
  H       1.214467     -1.134514     -1.346461
  H       0.606653     -1.189963      2.941272
  H      -4.297553     -0.509819     -0.215235
  H      -3.096890     -0.623110     -1.487194
  H       3.427075     -1.438236     -2.759010
  H       4.510663     -0.073811     -2.755814
  H       4.679259      1.302780     -0.833332
  H      -1.585542     -2.093880      3.585037
  H       3.840608      1.992137      1.387646
  H      -3.279742     -3.195310     -1.326153
  H       3.219953      1.048743     -4.363152
  H       0.741748      1.043457      2.632440
  H      -4.284185     -2.336212      1.396475
  H      -5.617597     -3.828746     -1.193941
  H      -6.061000     -2.149653     -0.566201
  H       0.992319      0.498449     -5.027258
  H       0.851745     -0.777621     -3.706190
38
Coordinates from ORCA-job honokiol3 E -846.963153854909
  O       1.607099      1.308394      2.459494
  O      -3.652268     -2.294855      2.126484
  C       1.296326     -0.079202      0.481122
  C      -0.004372     -0.626703      0.938558
  C      -2.335968     -1.182711      0.405076
  C      -1.097574     -0.647304      0.065126
  C       3.003420      0.053299     -1.275672
  C       1.811722     -0.451062     -0.763918
  C       2.030546      0.850086      1.240027
  C      -0.200401     -1.162655      2.218991
  C      -2.488093     -1.729368      1.690788
  C      -3.484666     -1.132183     -0.583142
  C       3.493105     -0.351392     -2.653101
  C       3.715533      0.954739     -0.483742
  C      -1.423510     -1.701546      2.589464
  C       3.235981      1.350899      0.756912
  C      -4.082182     -2.475448     -0.912432
  C       2.754093      0.305213     -3.802449
  C      -5.374056     -2.777794     -0.831701
  C       1.548850     -0.018698     -4.254839
  H      -0.983813     -0.207694     -0.919512
  H       1.255385     -1.180188     -1.340536
  H       0.623185     -1.202552      2.922218
  H      -4.281057     -0.472897     -0.215157
  H      -3.102952     -0.674623     -1.502711
  H       3.427664     -1.440104     -2.758113
  H       4.554502     -0.103577     -2.730595
  H       4.654582      1.361642     -0.841782
  H      -1.565821     -2.133819      3.571538
  H       3.776973      2.064703      1.364876
  H      -3.374798     -3.238008     -1.229852
  H       3.274304      1.131200     -4.280778
  H       0.704605      0.989805      2.604135
  H      -4.238140     -2.449379      1.371098
  H      -5.745082     -3.762748     -1.085376
  H      -6.113873     -2.044590     -0.524828
  H       1.095451      0.523563     -5.075487
  H       0.960364     -0.826455     -3.832420
38
Coordinates from ORCA-job honokiol3 E -846.964193276418
  O       1.555506      1.384112      2.428717
  O      -3.634326     -2.338338      2.121900
  C       1.293145     -0.067395      0.487851
  C       0.003779     -0.640879      0.947397
  C      -2.327162     -1.191652      0.415136
  C      -1.095077     -0.637737      0.081956
  C       2.999938      0.057103     -1.264481
  C       1.818069     -0.460037     -0.745338
  C       2.002398      0.899599      1.225841
  C      -0.170110     -1.227310      2.208902
  C      -2.463801     -1.781777      1.685015
  C      -3.479603     -1.105290     -0.564459
  C       3.487904     -0.379960     -2.630481
  C       3.688135      1.000092     -0.499394
  C      -1.387569     -1.785934      2.571613
  C       3.196169      1.418542      0.730062
  C      -4.102526     -2.434436     -0.904329
  C       2.763561      0.300745     -3.771513
  C      -5.401950     -2.708139     -0.824341
  C       1.603983     -0.081844     -4.295472
  H      -0.987643     -0.167937     -0.889226
  H       1.277046     -1.214043     -1.304634
  H       0.663522     -1.284777      2.898854
  H      -4.256132     -0.431996     -0.179054
  H      -3.096705     -0.648274     -1.485926
  H       3.380790     -1.466442     -2.726869
  H       4.557969     -0.167666     -2.712391
  H       4.617915      1.418397     -0.868013
  H      -1.520740     -2.252234      3.539406
  H       3.717106      2.162469      1.319387
  H      -3.412957     -3.208354     -1.233463
  H       3.240085      1.194177     -4.167114
  H       0.668451      1.030674      2.589724
  H      -4.209264     -2.530101      1.363928
  H      -5.796614     -3.680633     -1.091841
  H      -6.123479     -1.964421     -0.501161
  H       1.139565      0.477011     -5.098890
  H       1.065687     -0.959327     -3.949535
38
Coordinates from ORCA-job honokiol3 E -846.965168636635
  O       1.556293      1.405927      2.420493
  O      -3.650105     -2.294271      2.134042
  C       1.292179     -0.065453      0.499054
  C       0.002171     -0.636372      0.962858
  C      -2.324398     -1.184644      0.421457
  C      -1.092006     -0.629637      0.093254
  C       2.989090      0.037761     -1.258330
  C       1.810691     -0.474044     -0.729586
  C       2.002593      0.909480      1.223461
  C      -0.170224     -1.227863      2.221087
  C      -2.467046     -1.767605      1.693515
  C      -3.465164     -1.110900     -0.572189
  C       3.447413     -0.414284     -2.629203
  C       3.682144      0.989189     -0.509185
  C      -1.391004     -1.783533      2.579828
  C       3.195012      1.422391      0.717985
  C      -4.085222     -2.445480     -0.897584
  C       2.747998      0.340287     -3.735468
  C      -5.385804     -2.717379     -0.821040
  C       1.648377     -0.067021     -4.361357
  H      -0.975200     -0.166365     -0.879639
  H       1.262480     -1.228160     -1.281895
  H       0.664294     -1.286856      2.909656
  H      -4.240216     -0.427730     -0.203599
  H      -3.072558     -0.675057     -1.499899
  H       3.264729     -1.487685     -2.742046
  H       4.528291     -0.268794     -2.721879
  H       4.609948      1.402779     -0.887829
  H      -1.529794     -2.251324      3.546150
  H       3.718819      2.172478      1.296918
  H      -3.395909     -3.222775     -1.218781
  H       3.172338      1.306181     -3.997265
  H       0.680857      1.036805      2.604688
  H      -4.214289     -2.525327      1.378520
  H      -5.779807     -3.691531     -1.083998
  H      -6.107016     -1.971710     -0.502984
  H       1.175790      0.540399     -5.123805
  H       1.169318     -1.015891     -4.137639
38
Coordinates from ORCA-job honokiol3 E -846.965978508582
  O       1.570622      1.389485      2.418958
  O      -3.670167     -2.245052      2.147861
  C       1.288147     -0.071233      0.496608
  C      -0.008875     -0.626879      0.962394
  C      -2.334856     -1.176232      0.422589
  C      -1.099393     -0.631671      0.088134
  C       2.986105      0.020134     -1.260151
  C       1.801189     -0.480150     -0.734351
  C       2.010969      0.889292      1.224799
  C      -0.187783     -1.196871      2.228534
  C      -2.484473     -1.732120      1.704068
  C      -3.472950     -1.130386     -0.577124
  C       3.428732     -0.423752     -2.640461
  C       3.691746      0.956281     -0.505607
  C      -1.412125     -1.740973      2.592500
  C       3.210132      1.388016      0.723942
  C      -4.081464     -2.475987     -0.879015
  C       2.754668      0.386170     -3.720670
  C      -5.378112     -2.761603     -0.790657
  C       1.705216     -0.018136     -4.427744
  H      -0.977199     -0.186229     -0.892063
  H       1.243383     -1.221773     -1.294099
  H       0.645526     -1.252956      2.918788
  H      -4.253610     -0.446396     -0.225716
  H      -3.081147     -0.712886     -1.511538
  H       3.198466     -1.483275     -2.777093
  H       4.514162     -0.320572     -2.733214
  H       4.625338      1.359842     -0.880934
  H      -1.555116     -2.195271      3.564582
  H       3.744939      2.127098      1.306769
  H      -3.386694     -3.250697     -1.193618
  H       3.145747      1.387025     -3.883451
  H       0.692934      1.032952      2.611123
  H      -4.233815     -2.490322      1.398350
  H      -5.760977     -3.744271     -1.036879
  H      -6.105491     -2.018571     -0.480551
  H       1.238262      0.624047     -5.164659
  H       1.263031     -1.000087     -4.292639
