38
Coordinates from ORCA-job honokiol E -846.983178053369
  O           0.16597494716272      2.08109458056066     -1.71208294438255
  O          -4.17318662948064     -1.11658670316683      1.49387251249403
  C           1.00495307506553      0.50088426659735     -0.13293962082817
  C          -0.36338597837868      0.11068121988870      0.29517071182676
  C          -2.63617430246289     -0.63146383301375     -0.24819576802155
  C          -1.36172084933929     -0.21991655891138     -0.62900865124118
  C           3.43314226376261      0.24176428241616      0.13175098920381
  C           2.12132531800386     -0.08547368436221      0.47296641392464
  C           1.24080839020251      1.46556167668600     -1.13001673636014
  C          -0.68317581089579      0.01603482075793      1.65304073659771
  C          -2.92111164895780     -0.71174857443741      1.12250758623683
  C          -3.68585278953489     -0.96474756441906     -1.28870786937958
  C           4.60391954569391     -0.45056711797038      0.80417007429647
  C           3.62782618474796      1.19815411673851     -0.86308023469565
  C          -1.94595777361440     -0.39044140463594      2.06361298054933
  C           2.54363900356133      1.80409748117205     -1.48700017386915
  C          -4.59088529954841      0.19983758076440     -1.60203913228525
  C           4.87557584529485     -1.82064596738724      0.24116669579423
  C          -5.91710303046455      0.18516089693602     -1.51936628372415
  C           4.87092701427907     -2.94987248404963      0.94269268106675
  H          -1.13800843108154     -0.17121810611952     -1.68738025382493
  H           1.95085071624686     -0.83735395054921      1.23545154222250
  H           0.05743055038754      0.27007666833623      2.40134294564436
  H          -3.16796990080499     -1.26002832735944     -2.20673218045049
  H          -4.28776109369522     -1.81601943928949     -0.96534171174370
  H           5.49608739955985      0.17004599418131      0.67149897292827
  H           4.42397520979652     -0.53272638320145      1.87923716994611
  H           4.63336053108044      1.48022341751464     -1.15401335192025
  H          -2.18192444884012     -0.45519936367822      3.12042150356455
  H           2.70403886400569      2.55791092362229     -2.25054106656689
  H          -4.08757296848633      1.10810383267037     -1.92609275626290
  H           5.08457727997011     -1.85711852381494     -0.82584951605950
  H           0.47555129530107      2.73908684335174     -2.34904875939397
  H          -4.23443596535490     -1.15029727438353      2.45821717959319
  H          -6.50936529271881      1.05660420455959     -1.77282383715671
  H          -6.45650478699371     -0.69952756442020     -1.19666852075262
  H           5.07580243821800     -3.90700307605360      0.47755969382297
  H           4.66313112831255     -2.95496690553050      2.00794897920681
