! wB97X-D3 def2-TZVPP TightSCF

%maxcore 5000

%pal
nprocs 25
end

* xyz 0 1
O           1.44883635984216      1.74312873788024      2.47757224321896
  O          -3.96640522927180     -1.53721222658900      2.19719277017467
  C           1.14714937442909      0.25834961349492      0.55877500428167
  C          -0.19835349778325     -0.21055863713656      0.97966949961584
  C          -2.56606475265288     -0.57222577420972      0.45660474842279
  C          -1.28909883828207     -0.13470959393041      0.10948727036696
  C           2.98221273083837      0.15150725631207     -1.06284558698211
  C           1.71212180148166     -0.21824214778400     -0.62770025457740
  C           1.89277244111409      1.17574066914369      1.32454057921478
  C          -0.41254304704403     -0.77587852383178      2.24081332776923
  C          -2.74265491189686     -1.12499545197744      1.73366651795229
  C          -3.72754439607839     -0.40683812252847     -0.50372628148847
  C           3.55466786370372     -0.40754355836251     -2.35193343504399
  C           3.70484344935494      1.04119881500172     -0.26958110560480
  C          -1.66693318704310     -1.23512039630295      2.60906503642381
  C           3.16768012230630      1.54975989519899      0.90328982620552
  C          -4.45601156757363     -1.68792745951542     -0.81795702885990
  C           2.81644539058261      0.04971514249360     -3.58008664802281
  C          -5.76889875587354     -1.86619834595058     -0.69338491311510
  C           2.25229436617255     -0.75007228525331     -4.47742350750479
  H          -1.14557763172235      0.30675071574140     -0.87016567308010
  H           1.13834701339282     -0.92490247108501     -1.21712719955577
  H           0.41302798722578     -0.87118893303402      2.93471379511944
  H          -4.43822391260162      0.33147808754592     -0.11878883328300
  H          -3.33327107690856      0.00861578354354     -1.43549953076658
  H           3.55760292018952     -1.50146875024710     -2.32239447362272
  H           4.60119227210665     -0.09413067779989     -2.42917986839463
  H           4.70114718682672      1.34457991282087     -0.57171487568402
  H          -1.83081269112381     -1.68282716360525      3.58080808249647
  H           3.72006845377086      2.25530745863548      1.51083190661114
  H          -3.84014429328463     -2.51222300573692     -1.17005585502377
  H           2.75051506346327      1.12706196003368     -3.71326803707727
  H           0.49071634705253      1.65093472842828      2.60193727298891
  H          -4.56819910126180     -1.68893916668365      1.45248732189911
  H          -6.23955579845972     -2.80823485494509     -0.94590648070186
  H          -6.41942508357253     -1.06613571587761     -0.35485852311778
  H           1.73557058676709     -0.35697510930613     -5.34429491334588
  H           2.29014944136749     -1.82992900245794     -4.37945103132431
  H          -4.96809483007172      3.04528453531579      4.64027264278358
  H          -4.28811331346778      1.01420640836077      5.76251674412010
  C          -4.63042932642632      2.25301830915576      3.97093840903542
  O          -2.59950105314691      1.31659624668563      4.61862555774242
  C          -2.36670451754740      2.21567139209379      3.64889664321046
  C          -4.01765593469504      1.06093955220916      4.71016008484851
  O          -3.51932988645208      2.75524057923114      3.20221378916041
  O          -1.28705240862520      2.51673920373507      3.22947008037139
  H          -5.42591903598128      1.98452055326479      3.28029769561609
  H          -4.22601971862241      0.10911830323265      4.22168836884351
  O          -5.57480376756347      2.70856188804826      0.61728554974665
  C          -4.63885636096829      3.44373603705377      0.51657345659487
  O          -3.46472223300616      3.11549558556201     -0.05996650988183
  O          -4.61713522134920      4.71915993495152      0.95960407040262
  C          -2.49366090254553      4.14989790739242      0.18553322503205
  C          -3.36050218413059      5.33358878678795      0.62841857196613
  H          -1.81446629790682      3.80665433883107      0.96533678095942
  H          -3.53038713357665      6.06101958235524     -0.16688932747649
  H          -1.94611174514467      4.33317966016175     -0.73643385782507
  H          -2.97739480352578      5.83737480384762      1.51327655056490
*
