12
Coordinates from ORCA-job DMC E -343.589219606976
  O          -1.07882034606125     -0.68451245059122     -0.00033100479709
  O           1.07880416483465     -0.68453620548964     -0.00033275995494
  O           0.00001407249307      1.30732062678455     -0.00050620770340
  C           0.00000059598794      0.09759991178425     -0.00041488871128
  C          -2.35416468160880     -0.00774569901543     -0.00037971643658
  C           2.35416292413886     -0.00779782065551     -0.00038292838555
  H          -2.45386998449869      0.60819848534741      0.89199799320942
  H          -3.09741408716752     -0.79951517122338     -0.00030353110710
  H          -2.45388388617501      0.60804114596140     -0.89286432158287
  H           3.09739499316554     -0.79958307225874     -0.00032093870751
  H           2.45388808735918      0.60813444993025      0.89200021443612
  H           2.45388814753203      0.60799579942607     -0.89286191025922
