12
Coordinates from ORCA-job DMC E -343.586408204016
  O      -1.102300     -0.698000      0.000200
  O       1.102300     -0.698000      0.000200
  O       0.000100      1.326400      0.000200
  C       0.000000      0.102800      0.000500
  C      -2.361100     -0.016600     -0.000600
  C       2.361000     -0.016600     -0.000600
  H      -2.459600      0.597800      0.899500
  H      -3.154700     -0.768400     -0.000800
  H      -2.458700      0.597500     -0.901000
  H       3.154700     -0.768500     -0.000900
  H       2.459600      0.597800      0.899500
  H       2.458700      0.597400     -0.900900
12
Coordinates from ORCA-job DMC E -343.588882760820
  O      -1.081347     -0.691710     -0.000871
  O       1.081334     -0.691718     -0.000872
  O       0.000029      1.308143     -0.000717
  C      -0.000015      0.099659     -0.001673
  C      -2.345354     -0.010461     -0.000210
  C       2.345311     -0.010500     -0.000203
  H      -2.448113      0.602666      0.894917
  H      -3.113249     -0.780028      0.000318
  H      -2.449116      0.602540     -0.895302
  H       3.113205     -0.780088      0.000266
  H       2.448150      0.602603      0.894931
  H       2.449165      0.602494     -0.895285
12
Coordinates from ORCA-job DMC E -343.589149017611
  O      -1.077308     -0.684627      0.002815
  O       1.077294     -0.684646      0.002821
  O       0.000008      1.307050      0.001276
  C      -0.000011      0.100729      0.006017
  C      -2.349252     -0.008693     -0.001415
  C       2.349234     -0.008749     -0.001415
  H      -2.457785      0.605342      0.891264
  H      -3.099731     -0.793992     -0.003651
  H      -2.452087      0.605003     -0.894996
  H       3.099707     -0.794048     -0.003660
  H       2.457809      0.605291      0.891255
  H       2.452123      0.604939     -0.895010
12
Coordinates from ORCA-job DMC E -343.589103186486
  O      -1.077138     -0.681381     -0.012685
  O       1.077122     -0.681409     -0.012679
  O       0.000009      1.308127     -0.007693
  C      -0.000003      0.100496     -0.025988
  C      -2.353578     -0.007915      0.003776
  C       2.353574     -0.007976      0.003770
  H      -2.446929      0.606714      0.897490
  H      -3.093784     -0.802421      0.012636
  H      -2.469184      0.607623     -0.886712
  H       3.093772     -0.802480      0.012651
  H       2.446939      0.606674      0.897469
  H       2.469200      0.607548     -0.886735
12
Coordinates from ORCA-job DMC E -343.589216261231
  O      -1.078594     -0.682141      0.000239
  O       1.078578     -0.682170      0.000243
  O       0.000016      1.309019     -0.000290
  C       0.000001      0.099468      0.000825
  C      -2.355183     -0.007933     -0.000566
  C       2.355180     -0.007991     -0.000573
  H      -2.458023      0.607826      0.891544
  H      -3.095192     -0.802754     -0.000935
  H      -2.456994      0.607688     -0.892886
  H       3.095181     -0.802816     -0.000925
  H       2.458029      0.607786      0.891524
  H       2.457002      0.607617     -0.892902
12
Coordinates from ORCA-job DMC E -343.589219165390
  O      -1.078751     -0.683810     -0.000261
  O       1.078734     -0.683835     -0.000262
  O       0.000015      1.308034     -0.000511
  C      -0.000000      0.098422     -0.000234
  C      -2.354082     -0.007944     -0.000403
  C       2.354077     -0.007998     -0.000408
  H      -2.455081      0.607858      0.891969
  H      -3.096971     -0.800129     -0.000391
  H      -2.454969      0.607724     -0.892879
  H       3.096955     -0.800194     -0.000395
  H       2.455094      0.607806      0.891961
  H       2.454979      0.607666     -0.892885
12
Coordinates from ORCA-job DMC E -343.589219540872
  O      -1.078808     -0.684287     -0.000363
  O       1.078791     -0.684311     -0.000368
  O       0.000014      1.307571     -0.000536
  C      -0.000000      0.097852     -0.000468
  C      -2.354093     -0.007830     -0.000370
  C       2.354089     -0.007883     -0.000373
  H      -2.454183      0.608094      0.892003
  H      -3.097260     -0.799706     -0.000270
  H      -2.454261      0.607943     -0.892838
  H       3.097241     -0.799774     -0.000288
  H       2.454202      0.608030      0.892005
  H       2.454267      0.607899     -0.892835
12
Coordinates from ORCA-job DMC E -343.589219606976
  O      -1.078820     -0.684512     -0.000331
  O       1.078804     -0.684536     -0.000333
  O       0.000014      1.307321     -0.000506
  C       0.000001      0.097600     -0.000415
  C      -2.354165     -0.007746     -0.000380
  C       2.354163     -0.007798     -0.000383
  H      -2.453870      0.608198      0.891998
  H      -3.097414     -0.799515     -0.000304
  H      -2.453884      0.608041     -0.892864
  H       3.097395     -0.799583     -0.000321
  H       2.453888      0.608134      0.892000
  H       2.453888      0.607996     -0.892862
