! OPT B3LYP def2-TZVP TightSCF D3BJ RIJCOSX

%maxcore 5000

%pal
nprocs 25
end

* xyz 0 1
O        1.5951060724      1.2299973993      2.5184574744                 
O       -3.5027468527     -2.6140078505      2.0789620512                 
C        1.2369964443      0.0347031272      0.4415992022                 
C       -0.0316777387     -0.6281582025      0.8750842407                 
C       -2.3831978598     -1.2029314223      0.4438968854                 
C       -1.1757900529     -0.5805469895      0.0580265267                 
C        2.9481223255      0.3077808227     -1.2884686293                 
C        1.7245217898     -0.2303543178     -0.8523055675                 
C        1.9966400964      0.8897948557      1.2849926261                 
C       -0.1010573599     -1.3301831065      2.0898772616                 
C       -2.4101597171     -1.9440418181      1.6530289534                 
C       -3.6075235842     -1.0177487033     -0.4346099946                 
C        3.5109126655     -0.0589173107     -2.6357801671                 
C        3.6701516941      1.1565622295     -0.4380695609                 
C       -1.2711709226     -1.9935042192      2.4600199580                 
C        3.1909627741      1.4479730784      0.8329945556                 
C       -4.1778508171     -2.3152077751     -0.9382108532                 
C        2.6308221378      0.4047013932     -3.7618771192                 
C       -5.4601624911     -2.6447269349     -0.7333351629                 
C        2.1213184205     -0.4472521195     -4.6569832612                 
H       -1.1322035966     -0.0194978840     -0.8674359619                 
H        1.1767609849     -0.8983697600     -1.5060435396                 
H        0.7604766013     -1.3966832400      2.7424283203                 
H       -4.3714290169     -0.4466252573      0.1402578716                 
H       -3.3488611541     -0.4031452804     -1.3233589606                 
H        3.6522322452     -1.1621507358     -2.6606462488                 
H        4.5087623974      0.4081112169     -2.7757116017                 
H        4.6113280125      1.5907928328     -0.7503929207                 
H       -1.2996050116     -2.5471819476      3.3910265545                 
H        3.7533440342      2.1108340938      1.4805979750                 
H       -3.5368461244     -2.9936465549     -1.4893380066                 
H        2.4201915651      1.4649828295     -3.8602523642                 
H        0.7458883947      0.9591341702      2.8578705727                 
H       -4.3562058141     -2.6096509884      1.6327816173                 
H       -5.8481371506     -3.5858984297     -1.1060033272                 
H       -6.1355125666     -1.9830605960     -0.1954152438                 
H        1.5040336453     -0.0752988721     -5.4677877774                 
H        2.3184253960     -1.5138469097     -4.5985898363                 
H       -4.3085212570     -0.7558050910      3.2279632717                 
H       -3.6878057142     -1.7634713716      5.2879592669                 
O       -2.2011802068     -0.3269999825      5.2957349833                 
C       -3.5306498962     -0.6638716070      5.2810824550                 
C       -4.0836800418     -0.0071872259      4.0013167736                 
C       -2.0015393054      0.5735029697      4.3349629740                 
O       -0.9816517536      1.2352961430      4.2625946308                 
O       -3.0603780562      0.7920641286      3.5542191177                 
H       -5.0046543771      0.5760473950      4.1923853610                 
F       -4.1139840505     -0.0901782068      6.3954110641
*
