! OPT B3LYP def2-TZVP TightSCF

%maxcore 5000

%pal
nprocs 25
end

* xyz 0 1
  O           1.13609933845528      1.43585505371661      2.41229811596846
  O          -3.70758921633107     -2.63667249703111      1.90303607904035
  C           1.09558987129161     -0.01514393860349      0.44270029449219
  C          -0.16842418070267     -0.70025033300514      0.81671915196118
  C          -2.46265989367099     -1.34739698264962      0.24741757752774
  C          -1.26016975109977     -0.70975271379213     -0.05304288307313
  C           2.95136148846482      0.21227038281895     -1.14161726280834
  C           1.74654395805394     -0.36168555859273     -0.74480772100070
  C           1.67624355013036      0.97886401553798      1.25404388531652
  C          -0.29959181390497     -1.38503491866716      2.02850667020061
  C          -2.56048835691238     -2.01715444290674      1.47616327191451
  C          -3.63763460277280     -1.23780245299303     -0.70882725734445
  C           3.63062520028646     -0.21402783105841     -2.42997942841109
  C           3.51204407909405      1.17831466148337     -0.30749122346179
  C          -1.47537047261338     -2.04330913397768      2.34795500430813
  C           2.88407131010070      1.55930899804585      0.86808607018737
  C          -4.32543295573920     -2.53543644902161     -1.03633687252194
  C           2.83625058152013      0.11531766572483     -3.66370395479025
  C          -5.62926106060258     -2.77031608955865     -0.91212560556935
  C           2.43903366374128     -0.76387693998928     -4.57624361308758
  H          -1.17952765885056     -0.17843782360228     -0.99468952140777
  H           1.29694336463413     -1.12790198541057     -1.36673232553736
  H           0.53251258160038     -1.41476389534182      2.72055341006217
  H          -4.36350177131485     -0.51453378907130     -0.31641417046432
  H          -3.26472925225879     -0.81191232665278     -1.64523349780442
  H           3.83522368641384     -1.28915810376158     -2.41260354462090
  H           4.60221337236695      0.28785711272626     -2.48758999193047
  H           4.45209963025123      1.64442652995224     -0.58144041768544
  H          -1.57438942810027     -2.58674906922762      3.27924746573246
  H           3.30906203560288      2.32411839206008      1.50543667080278
  H          -3.68076739577532     -3.32455788295132     -1.41645816597997
  H           2.57583815055247      1.16385371329539     -3.78779908270187
  H           0.20619690259069      1.18560853054890      2.53873548436766
  H          -4.30540062118373     -2.80267226691406      1.15866847585149
  H          -6.06258014275909     -3.72267199014379     -1.19051584219702
  H          -6.31122873465288     -2.01052285550423     -0.54421208906138
  H           1.87001882285243     -0.46174059356323     -5.44686780634815
  H           2.67311305197934     -1.81959852215023     -4.48747438289147
  H          -5.56015514362404      1.41626472734791      3.35304539425135
  H          -5.06491023315839      0.05912493546955      5.29179592656122
  C          -4.86190450854266      0.60152813681239      3.15891038288770
  O          -3.11671881533145      0.29819445460704      4.67702898062987
  C          -2.65550545196872      0.99674332252654      3.61814364634130
  C          -4.45178235912318     -0.16802620452467      4.42161270038298
  O          -3.62650001618590      1.16941819849836      2.69683946553620
  O          -1.53998847881918      1.40444092728214      3.51148230106321
  H          -5.25272144165253     -0.05020654914305      2.37931861362558
  H          -4.42517754053159     -1.24544913244508      4.25971836788611
*
