! OPT B3LYP def2-TZVP TightSCF

%maxcore 5000

%pal
nprocs 25
end

* xyz 0 1
O           1.46224954619142      1.94234318744980      2.24853726002476
  O          -3.97091791310041     -1.26302149071579      2.09651093415840
  C           1.21591146035804      0.30293886698119      0.45355641773744
  C          -0.14737513588776     -0.11675504522815      0.87144207967578
  C          -2.51915720093688     -0.42688785977378      0.33040695304466
  C          -1.22446130874119     -0.04354978874471     -0.01598988867094
  C           3.09333473376127      0.06336083590990     -1.10193925738456
  C           1.81105903395527     -0.27061339172254     -0.67320562453111
  C           1.94171834350383      1.27724681205528      1.16419313345394
  C          -0.39346656632213     -0.62563690451878      2.15004711564239
  C          -2.72938177054243     -0.91656186468589      1.62795083561869
  C          -3.66078152021991     -0.26143377752370     -0.65366219237405
  C           3.70632149030324     -0.60368242285193     -2.31895272695165
  C           3.79441170869111      1.01643765342367     -0.36466028305597
  C          -1.66709158197923     -1.02861823647942      2.51967643786603
  C           3.22819356817099      1.61752279757796      0.74877124677764
  C          -4.45721048883906     -1.51699075816670     -0.90103810056196
  C           2.93255580259427     -0.37002006507946     -3.58650860473203
  C          -5.77896561347465     -1.61210227468210     -0.77605762362475
  C           2.43704031471370     -1.32221145987133     -4.36816360536569
  H          -1.05259042283376      0.34968469960138     -1.01156271484384
  H           1.24952917938246     -1.01905292661249     -1.22094475097750
  H           0.42078305230848     -0.72058786357960      2.85768032943187
  H          -4.33613469303818      0.53420032413957     -0.32292074351375
  H          -3.23428539415962      0.07412760531489     -1.60424191592671
  H           3.80271148429996     -1.68101740147873     -2.15168045568068
  H           4.72283786102324     -0.21678479347777     -2.44667621926788
  H           4.79764974851409      1.29723810553355     -0.66560714980959
  H          -1.85517766444862     -1.43363127499440      3.50594323921489
  H           3.76537949369805      2.37100606114776      1.31063374937534
  H          -3.88755143022741     -2.39239313074895     -1.20438740773260
  H           2.77788905571678      0.67228042471027     -3.85615122517874
  H           0.51974996372733      1.77798641516630      2.40601343372632
  H          -4.57883105527951     -1.40377672485753      1.35428951642568
  H          -6.30177176467157     -2.53806528433518     -0.98206197211550
  H          -6.38238676835377     -0.75787976344076     -0.48546508346197
  H           1.89073349373441     -1.08754836152953     -5.27321067949649
  H           2.56305308524622     -2.37394879679727     -4.13211802788498
  H          -5.16901431364492      2.76204519545322      4.29020373134835
  H          -4.23771206790790      1.20919182734116      5.87716324926676
  C          -4.58078984821462      1.96741393307265      3.83242830720747
  O          -2.51539647179017      1.36507221777971      4.76002376609143
  C          -2.29876020537116      2.19182271357712      3.72419160052121
  C          -3.91445784173201      1.03235000821223      4.85320384829332
  O          -3.46096971692836      2.56933740229284      3.15387940220939
  O          -1.22580312339098      2.56628295245260      3.35229345095389
  H          -5.18381068869654      1.44044835105403      3.09743597678379
  H          -4.03381168819741     -0.01904750342243      4.59744230763152
  O          -5.75272754500291      2.60695995232495      0.45731809596844
  C          -4.88459556362650      3.42271983586204      0.54113386311490
  O          -3.71600130519071      3.37009318857127     -0.12979265096224
  O          -4.94504017138703      4.52402138628079      1.31992633465224
  C          -2.81995099381171      4.38497203913843      0.35929202446088
  C          -3.74012125328735      5.29613947702298      1.18333278784279
  H          -2.05107510359316      3.90619506330108      0.96478110889248
  H          -3.98731270132427      6.23103757113459      0.67816236939603
  H          -2.36836465004462      4.88427143039693     -0.49599019594673
  H          -3.34907614889556      5.50472584143866      2.17705386564295
*
