58
Coordinates from ORCA-job honokiol3_FEC2 E -1730.376372268532
  O           1.89158569380157      1.16463365665645      2.79438872141678
  O          -3.64882269256774     -1.81817660790958      2.11747949119667
  C           1.44316634155316      0.13080314126267      0.62825648785967
  C           0.11538407598278     -0.39740172100810      1.01184473689290
  C          -2.24259759716701     -0.72304535219980      0.46989566614975
  C          -0.97356254921026     -0.26040806439874      0.15000690774363
  C           3.16646171249949      0.35955599673255     -1.09596260558190
  C           1.91717346326222     -0.07442689885325     -0.67061862612875
  C           2.26294735935594      0.83886323487284      1.52504608767427
  C          -0.08879398095534     -1.06818112155214      2.21950541091958
  C          -2.41584037777853     -1.38403467310325      1.69089994047146
  C          -3.40698415804126     -0.46706864784071     -0.45873036185946
  C           3.64658337138617      0.09373940378376     -2.50832322922454
  C           3.97497407932651      1.01646363227214     -0.17039764516529
  C          -1.33966636897099     -1.56563141446638      2.55039108517949
  C           3.52969065890056      1.25383801383868      1.12032027665559
  C          -4.09418113294279     -1.72755981511257     -0.90452695394370
  C           2.56132879626471      0.19604505796415     -3.53840975686248
  C          -5.38343863267966     -1.99933398248141     -0.72346936984171
  C           2.18979654974381     -0.79074308412867     -4.34355697806044
  H          -0.84586531867773      0.25674698812794     -0.78973694789062
  H           1.28670376171840     -0.60996552567226     -1.36851416678639
  H           0.73791443862726     -1.21330130851470      2.90119751623563
  H          -4.13614419880893      0.19309741508814      0.02323392689180
  H          -3.03145870582507      0.07012065957622     -1.33286553575989
  H           4.10582831788267     -0.89899608407932     -2.56309729408059
  H           4.43811207672778      0.81358978014478     -2.74117831213376
  H           4.95980564842641      1.35981383440998     -0.46516085628745
  H          -1.49426851149318     -2.10515578536582      3.47573358823986
  H           4.14175136533062      1.79205963955115      1.83274109293655
  H          -3.45813660188968     -2.46080934497189     -1.39291766860266
  H           2.04340407396438      1.14883280361209     -3.59059824318640
  H           0.92627741152088      1.24539345842103      2.87329238797375
  H          -4.20734394395521     -2.01341668788902      1.34814177082813
  H          -5.82265702368049     -2.92756778380355     -1.06532572802156
  H          -6.05081769501933     -1.28678074675631     -0.24896278584221
  H           1.39305650608287     -0.66106863803713     -5.06486743828718
  H           2.67045713469409     -1.76287563803200     -4.30934751952368
  H          -4.68408734851104      0.63925312813632      2.70538668459403
  H          -3.36727510620363     -0.51963056223015      4.35855773297144
  O          -2.03279405933999      1.05586097683187      4.44066791685371
  C          -3.37917597766881      0.55897943547078      4.49747197663772
  C          -4.06530317688641      1.27012018412372      3.33707806805616
  C          -1.84102471071690      1.69896371602860      3.28341634973691
  O          -0.79859718290823      2.14044147101806      2.90495442863748
  O          -3.00026523295021      1.78712726212381      2.58048937802338
  F          -4.83606885187746      2.31677273327107      3.78539278472540
  H          -3.81890783297290      0.83114384766559      5.45358129434016
  H           1.84569617045459      4.77798660562657     -0.74746193487954
  H           2.22258089692954      3.13613358003100     -0.12762800657795
  C           1.47826550086574      3.76367577309153     -0.61383029948227
  F          -0.45815413835934      4.98032393695281      0.07385824681593
  C           0.14246428593278      3.73794391590653      0.11767013900924
  H           0.15945156932789      3.41084172797582      1.15272789728500
  O           1.16331838010951      3.20476612903557     -1.89988610862487
  O          -0.63024373290207      2.84260766106493     -0.63651318270747
  C          -0.03778093435335      2.60492518546774     -1.84422284273750
  O          -0.52520667625877      1.94154342046979     -2.70228420927182
