12
Coordinates from ORCA-job DMC E -343.579664327289
  O          -1.08158434213460     -0.69949203386043     -0.00029384953328
  O           1.08156709072262     -0.69951411011076     -0.00029875359222
  O           0.00001115410751      1.29105669202063     -0.00053645954557
  C          -0.00000090812354      0.08621701853758     -0.00040045244727
  C          -2.33975374306940     -0.00753366353516     -0.00037828061840
  C           2.33975221335991     -0.00758499844838     -0.00038522351369
  H          -2.43369391304047      0.61627864615352      0.88806397613549
  H          -3.09675261268268     -0.78710916988795     -0.00033901182921
  H          -2.43364678253281      0.61614410816935     -0.88891893815805
  H           3.09673226813191     -0.78717931573242     -0.00034157308033
  H           2.43370648603172      0.61622774986431      0.88805555676795
  H           2.43366308922984      0.61608907682972     -0.88892699058543
