38
Coordinates from ORCA-job honokiol E -846.961000608544
  O       0.196118      2.483800     -1.262074
  O      -4.162944     -0.942913      1.490277
  C       1.047590      0.623541     -0.054706
  C      -0.328645      0.239074      0.362053
  C      -2.538754     -0.640608     -0.207624
  C      -1.251811     -0.250861     -0.566172
  C       3.460356      0.209533     -0.000049
  C       2.150331     -0.123055      0.356104
  C       1.276759      1.747855     -0.862471
  C      -0.725099      0.337039      1.693436
  C      -2.904308     -0.537555      1.139917
  C      -3.520858     -1.149236     -1.239684
  C       4.626928     -0.631478      0.480958
  C       3.653382      1.328591     -0.801519
  C      -2.002148     -0.051339      2.080817
  C       2.573366      2.093355     -1.230013
  C      -4.510138     -0.102918     -1.688245
  C       4.531876     -2.080573      0.085786
  C      -5.828873     -0.242284     -1.669425
  C       4.609697     -3.106201      0.924671
  H      -0.954760     -0.333251     -1.605107
  H       1.975009     -0.999016      0.969609
  H      -0.033609      0.717781      2.434602
  H      -2.954034     -1.483793     -2.115134
  H      -4.058687     -2.019053     -0.856527
  H       5.551733     -0.215013      0.067085
  H       4.721283     -0.560449      1.569445
  H       4.655642      1.615012     -1.098343
  H      -2.301686      0.022875      3.121488
  H       2.739889      2.967581     -1.851439
  H      -4.073494      0.821457     -2.058181
  H       4.391234     -2.266092     -0.976106
  H       0.496424      3.225366     -1.799150
  H      -4.294430     -0.800936      2.434079
  H      -6.489234      0.540348     -2.022463
  H      -6.299506     -1.143652     -1.292380
  H       4.546667     -4.131041      0.580405
  H       4.739537     -2.959492      1.991781
38
Coordinates from ORCA-job honokiol E -846.961206620815
  O       0.185467      2.447523     -1.305581
  O      -4.152696     -0.987345      1.479858
  C       1.046803      0.607688     -0.072741
  C      -0.326609      0.216803      0.345829
  C      -2.545849     -0.638616     -0.225610
  C      -1.262046     -0.241507     -0.586379
  C       3.462911      0.212984     -0.005696
  C       2.154539     -0.124934      0.350530
  C       1.270090      1.723776     -0.893817
  C      -0.708285      0.274700      1.684091
  C      -2.896342     -0.575583      1.128568
  C      -3.540697     -1.113420     -1.261679
  C       4.635556     -0.611270      0.489860
  C       3.649680      1.323639     -0.820524
  C      -1.982265     -0.121172      2.073722
  C       2.565179      2.074602     -1.261400
  C      -4.529467     -0.050341     -1.669875
  C       4.546066     -2.069981      0.131430
  C      -5.848687     -0.183671     -1.640694
  C       4.629166     -3.074106      0.995482
  H      -0.977213     -0.293060     -1.630645
  H       1.984236     -0.995187      0.973475
  H      -0.007569      0.630843      2.428843
  H      -2.984124     -1.425719     -2.151788
  H      -4.078803     -1.991134     -0.897448
  H       5.556170     -0.200510      0.061195
  H       4.734716     -0.512867      1.575846
  H       4.650552      1.613803     -1.118489
  H      -2.269829     -0.077314      3.119477
  H       2.727050      2.942381     -1.893030
  H      -4.092346      0.882269     -2.017976
  H       4.404669     -2.283103     -0.925194
  H       0.482714      3.185696     -1.849046
  H      -4.273434     -0.874778      2.429087
  H      -6.508321      0.612205     -1.964203
  H      -6.320027     -1.093190     -1.284707
  H       4.569877     -4.107319      0.676515
  H       4.759969     -2.900389      2.058413
38
Coordinates from ORCA-job honokiol E -846.961411165471
  O       0.176193      2.411475     -1.349511
  O      -4.142060     -1.032590      1.467707
  C       1.046150      0.591982     -0.091228
  C      -0.324412      0.194727      0.328756
  C      -2.552669     -0.636512     -0.243757
  C      -1.271983     -0.231857     -0.606493
  C       3.465364      0.216562     -0.011085
  C       2.158495     -0.126601      0.344790
  C       1.264171      1.699676     -0.925380
  C      -0.691423      0.212154      1.672470
  C      -2.888146     -0.614147      1.115634
  C      -3.560324     -1.076870     -1.282739
  C       4.643287     -0.591202      0.499223
  C       3.646526      1.318375     -0.839263
  C      -1.962259     -0.191650      2.064020
  C       2.557889      2.055530     -1.292742
  C      -4.548310      0.001852     -1.649381
  C       4.558677     -2.058548      0.177532
  C      -5.867804     -0.126091     -1.609388
  C       4.646607     -3.040554      1.066226
  H      -0.999303     -0.252187     -1.654974
  H       1.992791     -0.991035      0.976999
  H       0.018325      0.543680      2.420040
  H      -3.014322     -1.365823     -2.187143
  H      -4.098666     -1.962303     -0.938119
  H       5.560193     -0.187162      0.056490
  H       4.746731     -0.465695      1.582062
  H       4.646129      1.612115     -1.137989
  H      -2.237958     -0.178549      3.113789
  H       2.715497      2.916699     -1.934431
  H      -4.110654      0.942180     -1.975341
  H       4.416570     -2.298972     -0.873157
  H       0.470963      3.146119     -1.899070
  H      -4.252013     -0.949660      2.421301
  H      -6.526705      0.682033     -1.902618
  H      -6.339783     -1.043323     -1.274677
  H       4.590660     -4.081509      0.772882
  H       4.778377     -2.839917      2.124268
38
Coordinates from ORCA-job honokiol E -846.961656379890
  O       0.170296      2.374992     -1.403116
  O      -4.132322     -1.080512      1.457382
  C       1.043078      0.578320     -0.111448
  C      -0.324495      0.173925      0.309595
  C      -2.561157     -0.639451     -0.259759
  C      -1.284540     -0.226129     -0.624899
  C       3.465978      0.221276     -0.010284
  C       2.159615     -0.124034      0.341806
  C       1.260018      1.675014     -0.961726
  C      -0.677603      0.153768      1.657773
  C      -2.880971     -0.654453      1.104196
  C      -3.581963     -1.047604     -1.299630
  C       4.647727     -0.568717      0.519639
  C       3.644143      1.311531     -0.855159
  C      -1.943758     -0.259393      2.052815
  C       2.553432      2.033355     -1.326144
  C      -4.562162      0.049471     -1.629569
  C       4.578536     -2.040855      0.218615
  C      -5.882539     -0.063232     -1.573878
  C       4.662991     -3.009432      1.122261
  H      -1.025343     -0.218321     -1.676825
  H       1.995749     -0.980525      0.985446
  H       0.040231      0.465277      2.406376
  H      -3.045384     -1.320391     -2.214412
  H      -4.126627     -1.934140     -0.968604
  H       5.562897     -0.160562      0.077179
  H       4.740786     -0.428231      1.601513
  H       4.643559      1.607791     -1.152522
  H      -2.207077     -0.274038      3.105751
  H       2.708714      2.885753     -1.980017
  H      -4.117955      0.991979     -1.940440
  H       4.450238     -2.298846     -0.829853
  H       0.464960      3.105043     -1.959101
  H      -4.231822     -1.026445      2.414338
  H      -6.534795      0.759595     -1.839698
  H      -6.361296     -0.982050     -1.253470
  H       4.617593     -4.054728      0.842914
  H       4.782068     -2.792600      2.178654
38
Coordinates from ORCA-job honokiol E -846.961874876063
  O       0.162993      2.334054     -1.455336
  O      -4.123252     -1.126085      1.445549
  C       1.040408      0.562565     -0.131073
  C      -0.324043      0.151523      0.290654
  C      -2.569409     -0.641033     -0.275626
  C      -1.296272     -0.220046     -0.643026
  C       3.466448      0.226069     -0.009735
  C       2.160931     -0.123321      0.338915
  C       1.254932      1.647820     -0.996734
  C      -0.663197      0.093816      1.641855
  C      -2.874304     -0.693697      1.091103
  C      -3.603041     -1.016264     -1.315592
  C       4.651969     -0.545467      0.539151
  C       3.641246      1.305010     -0.870500
  C      -1.925556     -0.327406      2.039604
  C       2.547723      2.010371     -1.358586
  C      -4.575103      0.097981     -1.609220
  C       4.598074     -2.022149      0.259617
  C      -5.895959     -0.000526     -1.537213
  C       4.678765     -2.976605      1.178691
  H      -1.050012     -0.183572     -1.697522
  H       1.999806     -0.972170      0.993519
  H       0.062925      0.383838      2.391177
  H      -3.076387     -1.272885     -2.240646
  H      -4.153688     -1.904281     -0.999021
  H       5.565339     -0.133902      0.096400
  H       4.735761     -0.389064      1.619640
  H       4.640058      1.604567     -1.166628
  H      -2.176508     -0.369892      3.094792
  H       2.700173      2.853983     -2.024476
  H      -4.125036      1.042339     -1.905821
  H       4.483743     -2.298385     -0.785862
  H       0.456955      3.059505     -2.017674
  H      -4.211688     -1.100770      2.404815
  H      -6.541150      0.836074     -1.775813
  H      -6.381096     -0.920591     -1.230334
  H       4.643683     -4.026015      0.913747
  H       4.784570     -2.742987      2.232907
38
Coordinates from ORCA-job honokiol E -846.962152470999
  O       0.151814      2.269250     -1.530489
  O      -4.110728     -1.191830      1.424672
  C       1.037395      0.536473     -0.158964
  C      -0.322996      0.116906      0.263671
  C      -2.581334     -0.641382     -0.299030
  C      -1.312547     -0.209831     -0.668967
  C       3.467087      0.233238     -0.009946
  C       2.163332     -0.124331      0.335381
  C       1.246735      1.604359     -1.047394
  C      -0.641613      0.002247      1.616712
  C      -2.865120     -0.751387      1.068759
  C      -3.633669     -0.965659     -1.337600
  C       4.657912     -0.510031      0.566100
  C       3.636318      1.294519     -0.893834
  C      -1.899431     -0.430083      2.016565
  C       2.538171      1.974470     -1.406580
  C      -4.593416      0.171800     -1.577055
  C       4.625337     -1.993198      0.321165
  C      -5.914067      0.091530     -1.480816
  C       4.701270     -2.924655      1.264141
  H      -1.084086     -0.129335     -1.724759
  H       2.007561     -0.961524      1.006003
  H       0.096765      0.258178      2.366428
  H      -3.122842     -1.196682     -2.278100
  H      -4.192586     -1.856591     -1.044781
  H       5.569107     -0.096323      0.121021
  H       4.730509     -0.327431      1.643296
  H       4.633773      1.599519     -1.188792
  H      -2.133206     -0.515153      3.073105
  H       2.685990      2.804702     -2.090131
  H      -4.135161      1.118584     -1.852560
  H       4.530613     -2.296876     -0.718637
  H       0.444186      2.987868     -2.102359
  H      -4.182552     -1.209616      2.385486
  H      -6.549420      0.945991     -1.679061
  H      -6.407662     -0.830394     -1.193783
  H       4.681201     -3.980143      1.022931
  H       4.788159     -2.664781      2.313904
38
Coordinates from ORCA-job honokiol E -846.962397368464
  O       0.142489      2.174138     -1.645176
  O      -4.095987     -1.282944      1.394322
  C       1.031831      0.499581     -0.200434
  C      -0.323343      0.067418      0.222745
  C      -2.600320     -0.645428     -0.329432
  C      -1.337988     -0.199084     -0.702784
  C       3.466202      0.246347     -0.004364
  C       2.164166     -0.121885      0.332125
  C       1.238653      1.539859     -1.123132
  C      -0.614009     -0.125720      1.574388
  C      -2.854482     -0.832685      1.035907
  C      -3.678349     -0.900582     -1.361532
  C       4.661448     -0.455433      0.614060
  C       3.630967      1.279641     -0.922304
  C      -1.864911     -0.572648      1.977698
  C       2.528978      1.920016     -1.474736
  C      -4.612149      0.270186     -1.531205
  C       4.667153     -1.943727      0.403264
  C      -5.930876      0.224083     -1.392993
  C       4.726723     -2.852338      1.369635
  H      -1.135261     -0.060526     -1.757299
  H       2.013688     -0.941435      1.025397
  H       0.140518      0.085298      2.321891
  H      -3.188814     -1.103774     -2.319452
  H      -4.255053     -1.788163     -1.094909
  H       5.570946     -0.028944      0.177990
  H       4.705010     -0.247206      1.688163
  H       4.627374      1.592392     -1.212699
  H      -2.074638     -0.714663      3.033157
  H       2.672481      2.728980     -2.184270
  H      -4.136651      1.213956     -1.787288
  H       4.613675     -2.274517     -0.631206
  H       0.435621      2.883366     -2.228355
  H      -4.144124     -1.361513      2.353610
  H      -6.545304      1.104101     -1.538173
  H      -6.441847     -0.693507     -1.123196
  H       4.733321     -3.912830      1.150843
  H       4.773660     -2.567409      2.415447
38
Coordinates from ORCA-job honokiol E -846.962401382969
  O       0.142771      2.129473     -1.702453
  O      -4.103912     -1.298851      1.411561
  C       1.018080      0.490811     -0.204693
  C      -0.335637      0.056206      0.218689
  C      -2.614377     -0.666852     -0.320480
  C      -1.354982     -0.217263     -0.699922
  C       3.454173      0.258357      0.028090
  C       2.150851     -0.108532      0.355134
  C       1.233436      1.508953     -1.150757
  C      -0.623461     -0.134934      1.572768
  C      -2.863487     -0.850264      1.046181
  C      -3.696829     -0.921257     -1.349074
  C       4.645717     -0.424877      0.674497
  C       3.625033      1.270207     -0.913531
  C      -1.870319     -0.584378      1.982519
  C       2.525984      1.887322     -1.495383
  C      -4.588441      0.276124     -1.553267
  C       4.723531     -1.898010      0.387001
  C      -5.903860      0.290946     -1.378369
  C       4.743585     -2.856605      1.305853
  H      -1.159471     -0.084717     -1.756237
  H       1.997683     -0.914619      1.063568
  H       0.129818      0.084997      2.318859
  H      -3.209752     -1.171165     -2.296864
  H      -4.305030     -1.777947     -1.054305
  H       5.555564      0.063371      0.310368
  H       4.620913     -0.274896      1.758536
  H       4.623103      1.583382     -1.197869
  H      -2.074311     -0.720880      3.039863
  H       2.672695      2.679406     -2.223155
  H      -4.084654      1.188706     -1.863112
  H       4.756881     -2.175770     -0.663808
  H       0.443509      2.831700     -2.290438
  H      -4.144389     -1.382785      2.370859
  H      -6.484108      1.189888     -1.546054
  H      -6.443394     -0.592310     -1.055230
  H       4.801256     -3.902221      1.030446
  H       4.706633     -2.628317      2.365909
38
Coordinates from ORCA-job honokiol E -846.961592143472
  O       0.126256      1.965271     -1.860689
  O      -4.066396     -1.478727      1.307650
  C       1.028073      0.411560     -0.276768
  C      -0.319305     -0.045117      0.146989
  C      -2.636549     -0.634611     -0.384906
  C      -1.384231     -0.155938     -0.758762
  C       3.465716      0.278267     -0.013068
  C       2.171752     -0.122619      0.325642
  C       1.218854      1.391362     -1.270296
  C      -0.551239     -0.429419      1.469635
  C      -2.834160     -1.009116      0.946890
  C      -3.762387     -0.734408     -1.390261
  C       4.668021     -0.335030      0.680467
  C       3.617049      1.243990     -0.999114
  C      -1.793849     -0.905037      1.866192
  C       2.503079      1.795765     -1.622016
  C      -4.639775      0.491660     -1.424986
  C       4.721191     -1.835877      0.590140
  C      -5.945580      0.498932     -1.191539
  C       4.745549     -2.662458      1.628436
  H      -1.225138      0.116775     -1.791746
  H       2.047297     -0.906754      1.060880
  H       0.235406     -0.335212      2.206171
  H      -3.326294     -0.873852     -2.385478
  H      -4.373459     -1.616589     -1.190119
  H       5.578955      0.072578      0.228795
  H       4.691018     -0.031677      1.732198
  H       4.607129      1.572643     -1.291933
  H      -1.960563     -1.190350      2.900129
  H       2.633209      2.556167     -2.385622
  H      -4.132630      1.423508     -1.661585
  H       4.739277     -2.241510     -0.418262
  H       0.420737      2.658243     -2.461708
  H      -4.061798     -1.701588      2.244887
  H      -6.525578      1.412555     -1.240218
  H      -6.482385     -0.408446     -0.937784
  H       4.791975     -3.736624      1.498412
  H       4.721571     -2.295920      2.649046
38
Coordinates from ORCA-job honokiol E -846.962410612440
  O       0.138120      2.096219     -1.736675
  O      -4.087994     -1.352150      1.377710
  C       1.026081      0.469484     -0.229689
  C      -0.325816      0.026001      0.194458
  C      -2.618095     -0.651943     -0.344814
  C      -1.360652     -0.194243     -0.722415
  C       3.463674      0.262662      0.002953
  C       2.163489     -0.116208      0.334026
  C       1.231423      1.484862     -1.182222
  C      -0.594769     -0.228271      1.541565
  C      -2.849677     -0.897249      1.014364
  C      -3.714448     -0.858930     -1.368436
  C       4.659814     -0.405452      0.656379
  C       3.625810      1.268761     -0.944176
  C      -1.840464     -0.685204      1.947694
  C       2.520632      1.872730     -1.529880
  C      -4.614210      0.342088     -1.509201
  C       4.702754     -1.895195      0.458575
  C      -5.927990      0.339272     -1.324227
  C       4.735459     -2.795336      1.433952
  H      -1.177206     -0.015674     -1.773532
  H       2.020830     -0.921291      1.045018
  H       0.170763     -0.051379      2.286222
  H      -3.242703     -1.062443     -2.335276
  H      -4.314245     -1.732855     -1.108878
  H       5.570031      0.036341      0.237515
  H       4.673206     -0.185877      1.728843
  H       4.620852      1.588048     -1.231858
  H      -2.032185     -0.871366      2.999731
  H       2.660139      2.661616     -2.262477
  H      -4.116509      1.269737     -1.781253
  H       4.700759     -2.233038     -0.574979
  H       0.434741      2.800104     -2.324435
  H      -4.115133     -1.479476      2.332544
  H      -6.518238      1.239043     -1.447334
  H      -6.459175     -0.561478     -1.037251
  H       4.769539     -3.857249      1.224643
  H       4.732194     -2.502261      2.478515
38
Coordinates from ORCA-job honokiol E -846.962436950856
  O       0.133691      2.131093     -1.681890
  O      -4.098465     -1.304982      1.397143
  C       1.026294      0.485455     -0.202824
  C      -0.327591      0.049386      0.221468
  C      -2.608834     -0.653516     -0.327416
  C      -1.347550     -0.204067     -0.702794
  C       3.462380      0.256525      0.005881
  C       2.161919     -0.117751      0.343885
  C       1.229428      1.511329     -1.142934
  C      -0.612654     -0.159827      1.572192
  C      -2.857602     -0.856109      1.035585
  C      -3.691687     -0.894411     -1.357627
  C       4.658048     -0.430037      0.640138
  C       3.623994      1.274150     -0.928622
  C      -1.862320     -0.609328      1.975712
  C       2.518386      1.894969     -1.496891
  C      -4.599478      0.295075     -1.540251
  C       4.694452     -1.915576      0.409242
  C      -5.915978      0.283598     -1.376945
  C       4.736224     -2.836277      1.364751
  H      -1.149408     -0.055321     -1.756398
  H       2.018302     -0.928980      1.047715
  H       0.143470      0.042648      2.320145
  H      -3.208305     -1.117962     -2.314303
  H      -4.287238     -1.767037     -1.083801
  H       5.569483      0.016052      0.228294
  H       4.676991     -0.233795      1.716994
  H       4.618930      1.590140     -1.220186
  H      -2.068422     -0.763350      3.030232
  H       2.657547      2.692010     -2.220619
  H      -4.105179      1.220261     -1.826458
  H       4.680151     -2.229787     -0.631584
  H       0.426853      2.837525     -2.268211
  H      -4.138732     -1.398761      2.355343
  H      -6.513652      1.173634     -1.531127
  H      -6.443241     -0.615256     -1.077025
  H       4.765714     -3.893809      1.133571
  H       4.744879     -2.565510      2.415315
38
Coordinates from ORCA-job honokiol E -846.962444130766
  O       0.135165      2.124113     -1.694166
  O      -4.100043     -1.305855      1.400752
  C       1.023532      0.484219     -0.205806
  C      -0.330057      0.048229      0.218677
  C      -2.611649     -0.658194     -0.326389
  C      -1.351134     -0.208531     -0.703159
  C       3.459930      0.258484      0.012893
  C       2.158711     -0.114786      0.346918
  C       1.229890      1.506410     -1.149663
  C      -0.614353     -0.159221      1.570236
  C      -2.859127     -0.857698      1.037680
  C      -3.695458     -0.900474     -1.355672
  C       4.654127     -0.425038      0.653505
  C       3.623702      1.272914     -0.925335
  C      -1.863012     -0.608488      1.976044
  C       2.519613      1.889802     -1.500002
  C      -4.595666      0.293794     -1.543363
  C       4.704654     -1.907304      0.405942
  C      -5.911414      0.293789     -1.373169
  C       4.740059     -2.839204      1.350865
  H      -1.154870     -0.062503     -1.757539
  H       2.013039     -0.923447      1.053658
  H       0.142053      0.045762      2.317351
  H      -3.211953     -1.132599     -2.310103
  H      -4.296717     -1.766900     -1.075197
  H       5.565480      0.034629      0.256922
  H       4.657620     -0.242037      1.732802
  H       4.619388      1.589301     -1.214080
  H      -2.067678     -0.759842      3.031232
  H       2.660179      2.684465     -2.226115
  H      -4.096130      1.213641     -1.837771
  H       4.705342     -2.210118     -0.638396
  H       0.429951      2.830372     -2.280026
  H      -4.139149     -1.399679      2.359053
  H      -6.502371      1.187855     -1.529757
  H      -6.444092     -0.598993     -1.064855
  H       4.778909     -3.893587      1.107121
  H       4.734329     -2.580879      2.404610
38
Coordinates from ORCA-job honokiol E -846.962445338545
  O       0.135128      2.119537     -1.698065
  O      -4.102204     -1.302763      1.403788
  C       1.022322      0.483333     -0.204601
  C      -0.331545      0.048224      0.220086
  C      -2.613001     -0.659232     -0.324301
  C      -1.352324     -0.210311     -0.701639
  C       3.458569      0.259613      0.017422
  C       2.157161     -0.113665      0.350909
  C       1.229311      1.503250     -1.150950
  C      -0.616291     -0.156671      1.571950
  C      -2.861058     -0.855815      1.040000
  C      -3.696371     -0.903664     -1.353536
  C       4.652012     -0.422909      0.660356
  C       3.623006      1.271735     -0.923045
  C      -1.865195     -0.604874      1.978210
  C       2.519238      1.886421     -1.500769
  C      -4.593302      0.292149     -1.547273
  C       4.710952     -1.902949      0.401010
  C      -5.908783      0.296964     -1.375089
  C       4.744203     -2.842340      1.338550
  H      -1.155594     -0.066807     -1.756208
  H       2.011286     -0.920666      1.059465
  H       0.139802      0.049712      2.318943
  H      -3.212693     -1.141435     -2.306499
  H      -4.300065     -1.767241     -1.069650
  H       5.563755      0.044130      0.273376
  H       4.647560     -0.248667      1.741021
  H       4.618860      1.588081     -1.211232
  H      -2.070378     -0.754006      3.033618
  H       2.660198      2.679446     -2.228594
  H      -4.091420      1.208754     -1.847689
  H       4.719910     -2.197010     -0.645792
  H       0.430439      2.825233     -2.284346
  H      -4.141240     -1.395222      2.362225
  H      -6.497482      1.191778     -1.535901
  H      -6.443592     -0.592527     -1.060982
  H       4.789241     -3.894560      1.086658
  H       4.730385     -2.592626      2.394277
38
Coordinates from ORCA-job honokiol E -846.962446685518
  O       0.134583      2.113310     -1.701860
  O      -4.106198     -1.295799      1.409168
  C       1.020282      0.482644     -0.201514
  C      -0.333931      0.049008      0.223334
  C      -2.614599     -0.661603     -0.320397
  C      -1.353440     -0.214437     -0.698375
  C       3.456311      0.260813      0.024815
  C       2.154585     -0.112180      0.357307
  C       1.228292      1.499488     -1.150968
  C      -0.620505     -0.148957      1.575868
  C      -2.864493     -0.851104      1.044530
  C      -3.696801     -0.910563     -1.349851
  C       4.648672     -0.420893      0.670482
  C       3.621784      1.270234     -0.918348
  C      -1.869842     -0.595253      1.982737
  C       2.518543      1.882253     -1.499991
  C      -4.588679      0.287267     -1.554308
  C       4.721012     -1.896804      0.391045
  C      -5.903885      0.299598     -1.380286
  C       4.751074     -2.849022      1.315681
  H      -1.155429     -0.076229     -1.753453
  H       2.008051     -0.917012      1.068204
  H       0.134442      0.061566      2.322842
  H      -3.212193     -1.157777     -2.299938
  H      -4.304343     -1.769405     -1.060044
  H       5.560603      0.058292      0.299097
  H       4.631819     -0.261964      1.753290
  H       4.617930      1.586528     -1.205632
  H      -2.076505     -0.738822      3.038620
  H       2.660107      2.673118     -2.230065
  H      -4.083085      1.198759     -1.863961
  H       4.742791     -2.176012     -0.659642
  H       0.430351      2.817941     -2.289211
  H      -4.146055     -1.384022      2.367956
  H      -6.488855      1.195481     -1.548571
  H      -6.442176     -0.584533     -1.057134
  H       4.805832     -3.897302      1.049689
  H       4.724748     -2.614205      2.374582
38
Coordinates from ORCA-job honokiol E -846.962448813312
  O       0.135036      2.107828     -1.705285
  O      -4.109680     -1.287911      1.412496
  C       1.019430      0.482248     -0.198827
  C      -0.335468      0.050490      0.226094
  C      -2.615765     -0.660957     -0.317738
  C      -1.353985     -0.215732     -0.695869
  C       3.455096      0.261443      0.030931
  C       2.152959     -0.110848      0.363014
  C       1.228351      1.496254     -1.151254
  C      -0.623481     -0.142548      1.578980
  C      -2.867269     -0.845307      1.047621
  C      -3.696808     -0.913551     -1.347536
  C       4.646204     -0.420213      0.678725
  C       3.621543      1.268233     -0.914697
  C      -1.873554     -0.586681      1.986038
  C       2.518906      1.878330     -1.499701
  C      -4.587924      0.283939     -1.557572
  C       4.728300     -1.892720      0.383622
  C      -5.903262      0.297496     -1.384869
  C       4.758615     -2.854701      1.298028
  H      -1.154564     -0.081374     -1.751182
  H       2.005655     -0.913555      1.076219
  H       0.130970      0.070044      2.325901
  H      -3.211254     -1.164658     -2.296107
  H      -4.305009     -1.771003     -1.055094
  H       5.558487      0.067589      0.319632
  H       4.619929     -0.273407      1.762983
  H       4.617985      1.584157     -1.201355
  H      -2.081683     -0.726455      3.042147
  H       2.661201      2.667253     -2.231708
  H      -4.081361      1.193904     -1.870054
  H       4.757264     -2.159965     -0.669992
  H       0.431068      2.811199     -2.293988
  H      -4.150633     -1.372762      2.371549
  H      -6.487912      1.192872     -1.556968
  H      -6.442283     -0.585227     -1.059055
  H       4.820467     -3.899812      1.021330
  H       4.725230     -2.631493      2.359238
38
Coordinates from ORCA-job honokiol E -846.962448108300
  O       0.138723      2.087572     -1.719799
  O      -4.122816     -1.258683      1.424438
  C       1.015921      0.481152     -0.188949
  C      -0.341639      0.056855      0.235870
  C      -2.620638     -0.657862     -0.307990
  C      -1.356651     -0.219726     -0.686830
  C       3.450076      0.262734      0.054844
  C       2.146106     -0.105481      0.385318
  C       1.229522      1.483300     -1.153256
  C      -0.635033     -0.118014      1.589978
  C      -2.877997     -0.823410      1.058725
  C      -3.697623     -0.923506     -1.338732
  C       4.636000     -0.418594      0.711444
  C       3.621364      1.258480     -0.901068
  C      -1.887676     -0.554396      1.997763
  C       2.521676      1.861455     -1.499431
  C      -4.586969      0.271892     -1.568088
  C       4.758091     -1.875621      0.356556
  C      -5.902916      0.288518     -1.400789
  C       4.788524     -2.874564      1.230291
  H      -1.152345     -0.099621     -1.742897
  H       1.995164     -0.899359      1.107712
  H       0.117302      0.102696      2.336712
  H      -3.208682     -1.187788     -2.281944
  H      -4.307493     -1.776643     -1.037305
  H       5.548248      0.102098      0.401767
  H       4.572916     -0.319512      1.799333
  H       4.619244      1.571949     -1.185466
  H      -2.100793     -0.680027      3.054668
  H       2.667801      2.642289     -2.239262
  H      -4.077976      1.177078     -1.890205
  H       4.817609     -2.096178     -0.706514
  H       0.437089      2.785165     -2.314176
  H      -4.167677     -1.331037      2.384355
  H      -6.486783      1.181689     -1.586553
  H      -6.443865     -0.589659     -1.065943
  H       4.879777     -3.905700      0.912363
  H       4.725220     -2.697142      2.298760
38
Coordinates from ORCA-job honokiol E -846.962451517517
  O       0.137838      2.099648     -1.712369
  O      -4.114674     -1.275452      1.416020
  C       1.018738      0.482341     -0.194945
  C      -0.337457      0.053912      0.229735
  C      -2.617511     -0.657502     -0.314595
  C      -1.354726     -0.215281     -0.692758
  C       3.453685      0.261847      0.040735
  C       2.150663     -0.108046      0.372548
  C       1.229865      1.490908     -1.152866
  C      -0.627563     -0.132907      1.582993
  C      -2.871285     -0.835517      1.051229
  C      -3.696992     -0.914607     -1.344847
  C       4.642485     -0.419774      0.692270
  C       3.622431      1.263389     -0.909809
  C      -1.878806     -0.573896      1.990079
  C       2.521215      1.870729     -1.500582
  C      -4.590862      0.280214     -1.558646
  C       4.739820     -1.886722      0.373774
  C      -5.906799      0.290046     -1.390516
  C       4.771156     -2.863202      1.272582
  H      -1.153326     -0.085764     -1.748277
  H       2.001629     -0.906594      1.090054
  H       0.126216      0.081993      2.329911
  H      -3.210042     -1.166714     -2.292448
  H      -4.303312     -1.773074     -1.051309
  H       5.555313      0.080722      0.352458
  H       4.601693     -0.291242      1.778308
  H       4.619574      1.577745     -1.195815
  H      -2.088856     -0.708953      3.046420
  H       2.665499      2.655935     -2.236178
  H      -4.085696      1.191224     -1.870317
  H       4.779871     -2.135926     -0.683876
  H       0.435140      2.799947     -2.304102
  H      -4.157396     -1.355704      2.375392
  H      -6.493689      1.183401     -1.565500
  H      -6.444349     -0.593941     -1.065677
  H       4.844499     -3.903136      0.979672
  H       4.726811     -2.657646      2.336953
38
Coordinates from ORCA-job honokiol E -846.962451945096
  O       0.138928      2.098645     -1.714025
  O      -4.115132     -1.273930      1.415918
  C       1.018842      0.482558     -0.194703
  C      -0.337553      0.054684      0.229857
  C      -2.617712     -0.656341     -0.314574
  C      -1.354798     -0.214485     -0.692686
  C       3.453690      0.261704      0.042070
  C       2.150469     -0.107518      0.373778
  C       1.230586      1.490112     -1.153557
  C      -0.627913     -0.131718      1.583142
  C      -2.871664     -0.834109      1.051280
  C      -3.697123     -0.913545     -1.344849
  C       4.642064     -0.419823      0.694404
  C       3.623004      1.262235     -0.909453
  C      -1.879279     -0.572412      1.990200
  C       2.522148      1.869224     -1.501213
  C      -4.592642      0.280255     -1.557268
  C       4.741531     -1.886032      0.373143
  C      -5.908778      0.287745     -1.390602
  C       4.772988     -2.864240      1.270053
  H      -1.153279     -0.085226     -1.748198
  H       2.000987     -0.905334      1.092029
  H       0.125794      0.083309      2.330117
  H      -3.210013     -1.163937     -2.292816
  H      -4.302248     -1.773193     -1.052218
  H       5.554958      0.082325      0.357251
  H       4.599163     -0.293522      1.780609
  H       4.620304      1.576090     -1.195410
  H      -2.089420     -0.707174      3.046568
  H       2.666946      2.653681     -2.237492
  H      -4.088630      1.192609     -1.866861
  H       4.783120     -2.133142     -0.684929
  H       0.436674      2.798123     -2.306493
  H      -4.158127     -1.353790      2.375319
  H      -6.496804      1.180512     -1.564755
  H      -6.445307     -0.597613     -1.067816
  H       4.847897     -3.903486      0.975109
  H       4.727132     -2.660840      2.334770
38
Coordinates from ORCA-job honokiol E -846.962451950633
  O       0.143000      2.094440     -1.719764
  O      -4.118054     -1.265257      1.417448
  C       1.018703      0.483481     -0.192461
  C      -0.338579      0.058400      0.231799
  C      -2.618693     -0.652593     -0.312941
  C      -1.355099     -0.212734     -0.691039
  C       3.453050      0.261202      0.049080
  C       2.148986     -0.105268      0.380243
  C       1.233030      1.486714     -1.155240
  C      -0.630711     -0.123597      1.585329
  C      -2.874146     -0.826483      1.053152
  C      -3.697220     -0.912316     -1.343428
  C       4.639515     -0.420306      0.704604
  C       3.624911      1.257566     -0.906418
  C      -1.882752     -0.562361      1.992382
  C       2.525545      1.863038     -1.502482
  C      -4.597786      0.277788     -1.554779
  C       4.750521     -1.882121      0.367075
  C      -5.914614      0.278296     -1.393438
  C       4.781156     -2.870554      1.252746
  H      -1.152478     -0.086653     -1.746699
  H       1.997606     -0.899902      1.101613
  H       0.122146      0.093507      2.332527
  H      -3.209065     -1.159364     -2.291751
  H      -4.298804     -1.775032     -1.052243
  H       5.552510      0.091049      0.381839
  H       4.585772     -0.307032      1.791700
  H       4.622958      1.569458     -1.191970
  H      -2.093919     -0.693787      3.048946
  H       2.672475      2.644431     -2.241616
  H      -4.097275      1.193653     -1.859711
  H       4.801712     -2.116716     -0.693420
  H       0.442644      2.790626     -2.315148
  H      -4.162589     -1.341709      2.377063
  H      -6.506111      1.168792     -1.567410
  H      -6.448054     -0.610595     -1.075291
  H       4.864591     -3.905734      0.946040
  H       4.725919     -2.679925      2.319366
38
Coordinates from ORCA-job honokiol E -846.962452293929
  O       0.141655      2.096890     -1.717202
  O      -4.116436     -1.269382      1.416458
  C       1.018961      0.483346     -0.193586
  C      -0.337893      0.057024      0.230798
  C      -2.618085     -0.653889     -0.313846
  C      -1.354805     -0.213063     -0.691916
  C       3.453556      0.261345      0.045738
  C       2.149855     -0.106135      0.377191
  C       1.232286      1.488488     -1.154556
  C      -0.629253     -0.127180      1.584195
  C      -2.872815     -0.829869      1.052099
  C      -3.697056     -0.912238     -1.344232
  C       4.640877     -0.420229      0.699811
  C       3.624409      1.259541     -0.908044
  C      -1.880961     -0.566934      1.991211
  C       2.524434      1.865838     -1.502082
  C      -4.596260      0.279018     -1.554992
  C       4.746297     -1.884185      0.370157
  C      -5.912868      0.281381     -1.391878
  C       4.776630     -2.867745      1.261251
  H      -1.152771     -0.085357     -1.747499
  H       1.999238     -0.902213      1.097134
  H       0.123922      0.088953      2.331382
  H      -3.209364     -1.159564     -2.292718
  H      -4.299596     -1.774273     -1.053108
  H       5.553863      0.086718      0.370166
  H       4.592281     -0.300602      1.786503
  H       4.622148      1.572114     -1.193870
  H      -2.091567     -0.700032      3.047690
  H       2.670477      2.648552     -2.239974
  H      -4.094882      1.194091     -1.860850
  H       4.793439     -2.124903     -0.689153
  H       0.440632      2.794280     -2.311507
  H      -4.160336     -1.347422      2.375970
  H      -6.503403      1.172622     -1.565318
  H      -6.447104     -0.606694     -1.072792
  H       4.855939     -3.904882      0.960102
  H       4.725353     -2.671011      2.326965
38
Coordinates from ORCA-job honokiol E -846.962452258428
  O       0.141958      2.096496     -1.717580
  O      -4.116775     -1.268372      1.416849
  C       1.018911      0.483457     -0.193227
  C      -0.338009      0.057396      0.231167
  C      -2.618152     -0.653701     -0.313495
  C      -1.354797     -0.213105     -0.691577
  C       3.453468      0.261362      0.046503
  C       2.149705     -0.105892      0.377905
  C       1.232458      1.488207     -1.154546
  C      -0.629611     -0.126138      1.584603
  C      -2.873105     -0.829034      1.052486
  C      -3.696959     -0.912513     -1.343927
  C       4.640623     -0.420270      0.700812
  C       3.624543      1.259218     -0.907605
  C      -1.881395     -0.565662      1.991628
  C       2.524687      1.865352     -1.502024
  C      -4.596407      0.278478     -1.555142
  C       4.747271     -1.883705      0.369211
  C      -5.913064      0.280534     -1.392435
  C       4.777076     -2.868521      1.258939
  H      -1.152605     -0.085919     -1.747194
  H       1.998920     -0.901695      1.098122
  H       0.123427      0.090351      2.331829
  H      -3.209112     -1.159949     -2.292305
  H      -4.299363     -1.774600     -1.052678
  H       5.553588      0.087729      0.372732
  H       4.590881     -0.302176      1.787611
  H       4.622342      1.571637     -1.193381
  H      -2.092165     -0.698230      3.048140
  H       2.670865      2.647803     -2.240173
  H      -4.095191      1.193620     -1.861058
  H       4.795785     -2.122902     -0.690381
  H       0.441080      2.793567     -2.312191
  H      -4.160869     -1.345880      2.376392
  H      -6.503766      1.171588     -1.566264
  H      -6.447165     -0.607603     -1.073300
  H       4.857269     -3.905179      0.956380
  H       4.724454     -2.673351      2.324874
