38
Coordinates from ORCA-job honokiol2 E -846.968435671431
  O       1.433789      1.317348      2.485329
  O      -3.617596     -2.426120      2.168281
  C       1.232595     -0.044249      0.480541
  C      -0.048149     -0.653621      0.925237
  C      -2.399847     -1.175268      0.478291
  C      -1.184550     -0.600603      0.113260
  C       2.987614      0.168443     -1.211900
  C       1.788173     -0.375590     -0.757193
  C       1.912065      0.892974      1.278554
  C      -0.160457     -1.319140      2.152621
  C      -2.472551     -1.842925      1.711528
  C      -3.616207     -1.040616     -0.416625
  C       3.561305     -0.236007     -2.557220
  C       3.640563      1.083912     -0.388026
  C      -1.355394     -1.906824      2.539200
  C       3.109715      1.447523      0.841396
  C      -4.213351     -2.353687     -0.854021
  C       2.680679      0.135904     -3.718333
  C      -5.489351     -2.698184     -0.705171
  C       2.200049     -0.714716     -4.617488
  H      -1.123917     -0.075622     -0.833376
  H       1.267185     -1.097263     -1.376281
  H       0.706424     -1.411888      2.796106
  H      -4.387604     -0.444666      0.083787
  H      -3.319686     -0.478247     -1.306700
  H       3.748934     -1.313970     -2.579202
  H       4.534252      0.251571     -2.678472
  H       4.578080      1.523146     -0.709706
  H      -1.437471     -2.438253      3.478598
  H       3.606962      2.170955      1.474738
  H      -3.525327     -3.052664     -1.322830
  H       2.430944      1.191205     -3.798526
  H       0.561370      0.929754      2.637860
  H      -4.235172     -2.572005      1.437155
  H      -5.862530     -3.654385     -1.049550
  H      -6.210322     -2.028568     -0.246979
  H       1.572936     -0.382580     -5.435627
  H       2.421211     -1.775868     -4.571369
38
Coordinates from ORCA-job honokiol2 E -846.968438138957
  O       1.435483      1.317628      2.485707
  O      -3.618950     -2.424573      2.168760
  C       1.232466     -0.044473      0.481032
  C      -0.048566     -0.652925      0.925877
  C      -2.400458     -1.174003      0.478897
  C      -1.184928     -0.600090      0.113684
  C       2.987330      0.167063     -1.212043
  C       1.787791     -0.376308     -0.756748
  C       1.912647      0.892714      1.278725
  C      -0.161742     -1.317028      2.154058
  C      -2.473709     -1.841165      1.712434
  C      -3.616863     -1.039618     -0.415935
  C       3.560182     -0.237940     -2.557511
  C       3.640933      1.082380     -0.388563
  C      -1.356986     -1.903981      2.540898
  C       3.110616      1.446459      0.840964
  C      -4.211006     -2.352995     -0.856330
  C       2.680490      0.136254     -3.718567
  C      -5.485744     -2.701823     -0.706937
  C       2.198134     -0.712845     -4.618225
  H      -1.124079     -0.075537     -0.833209
  H       1.266481     -1.098009     -1.375592
  H       0.704884     -1.409513      2.797955
  H      -4.389933     -0.446637      0.085524
  H      -3.321020     -0.474463     -1.304575
  H       3.745391     -1.316390     -2.580148
  H       4.534222      0.247679     -2.678290
  H       4.578725      1.520890     -0.710464
  H      -1.439593     -2.434328      3.480849
  H       3.608670      2.169652      1.473926
  H      -3.521346     -3.048849     -1.327482
  H       2.432996      1.192156     -3.798258
  H       0.563437      0.929586      2.639583
  H      -4.234947     -2.572678      1.436708
  H      -5.856243     -3.658392     -1.053158
  H      -6.208351     -2.035305     -0.246770
  H       1.571888     -0.378882     -5.436284
  H       2.417060     -1.774504     -4.572605
38
Coordinates from ORCA-job honokiol2 E -846.968440491958
  O       1.437999      1.319431      2.485282
  O      -3.622489     -2.419562      2.169905
  C       1.231937     -0.044987      0.481932
  C      -0.049759     -0.651171      0.927185
  C      -2.402031     -1.170651      0.480216
  C      -1.185879     -0.598793      0.114412
  C       2.986787      0.162995     -1.212112
  C       1.786666     -0.378221     -0.755794
  C       1.913806      0.891903      1.278827
  C      -0.164723     -1.312556      2.156817
  C      -2.476557     -1.836428      1.714480
  C      -3.618404     -1.037548     -0.414696
  C       3.557816     -0.243445     -2.557821
  C       3.641989      1.077891     -0.389482
  C      -1.360644     -1.897842      2.544207
  C       3.112602      1.443447      0.839998
  C      -4.205394     -2.352224     -0.860526
  C       2.681276      0.137993     -3.718861
  C      -5.477165     -2.710915     -0.709459
  C       2.194137     -0.706430     -4.620317
  H      -1.124415     -0.075468     -0.833143
  H       1.264419     -1.099770     -1.374083
  H       0.701447     -1.404995      2.801390
  H      -4.395142     -0.451036      0.088696
  H      -3.324296     -0.466932     -1.300471
  H       3.735949     -1.323093     -2.582362
  H       4.535019      0.236252     -2.676944
  H       4.580444      1.514687     -0.711809
  H      -1.444338     -2.426137      3.485204
  H       3.612283      2.166335      1.472017
  H      -3.512011     -3.041229     -1.336349
  H       2.440405      1.195588     -3.796873
  H       0.566243      0.931518      2.641274
  H      -4.234683     -2.573003      1.435752
  H      -5.841464     -3.668678     -1.058867
  H      -6.203466     -2.051213     -0.245229
  H       1.570567     -0.366984     -5.438143
  H       2.406427     -1.769521     -4.576365
38
Coordinates from ORCA-job honokiol2 E -846.968440939598
  O       1.437814      1.319566      2.484684
  O      -3.623478     -2.417248      2.171130
  C       1.231651     -0.045244      0.481753
  C      -0.050130     -0.651017      0.927225
  C      -2.402476     -1.170184      0.480549
  C      -1.186196     -0.598894      0.114373
  C       2.986713      0.161723     -1.212158
  C       1.786408     -0.379016     -0.755791
  C       1.913645      0.891701      1.278398
  C      -0.165280     -1.311549      2.157246
  C      -2.477191     -1.835100      1.715273
  C      -3.618823     -1.037631     -0.414522
  C       3.557631     -0.245104     -2.557786
  C       3.642119      1.076648     -0.389678
  C      -1.361319     -1.896336      2.545002
  C       3.112649      1.442719      0.839609
  C      -4.204465     -2.352828     -0.860661
  C       2.682550      0.139176     -3.719013
  C      -5.475830     -2.712934     -0.709514
  C       2.194143     -0.703484     -4.621432
  H      -1.124608     -0.076153     -0.833487
  H       1.264032     -1.100600     -1.373921
  H       0.700818     -1.403726      2.801945
  H      -4.396123     -0.452025      0.089007
  H      -3.325103     -0.466490     -1.300044
  H       3.733308     -1.325105     -2.582971
  H       4.535971      0.232460     -2.676059
  H       4.580769      1.513079     -0.711965
  H      -1.445131     -2.423986      3.486362
  H       3.612507      2.165592      1.471509
  H      -3.510374     -3.040985     -1.336643
  H       2.443957      1.197332     -3.796303
  H       0.566077      0.931718      2.640779
  H      -4.234882     -2.572655      1.436723
  H      -5.839075     -3.671079     -1.058956
  H      -6.202831     -2.054038     -0.245236
  H       1.571716     -0.362051     -5.439301
  H       2.404196     -1.767045     -4.578235
