! OPT B3LYP def2-TZVP TightSCF

%maxcore 5000

%pal
nprocs 2
end

* xyz 0 1
O           1.66270255100176      1.84906775836700      2.15498169011229
  O          -3.63150966464395     -1.52674869947809      2.05664262871833
  C           1.48199664955416      0.20894114242910      0.35567112746256
  C           0.13873265957491     -0.26403268157354      0.78783572085458
  C          -2.25574400706529     -0.48698672404073      0.34237809684654
  C          -0.97797599427048     -0.07850862448082     -0.03133155990869
  C           3.34655757097715      0.06877018500638     -1.22578271119958
  C           2.08647700067406     -0.32803096299090     -0.78313665170783
  C           2.17212679918013      1.20772699919437      1.06517787120003
  C          -0.04521684293404     -0.90995545652062      2.01275685209617
  C          -2.40378251442786     -1.13192943353620      1.57893036195916
  C          -3.44987406622206     -0.19855315221447     -0.54436107798976
  C           3.97763252874257     -0.56274202761771     -2.45323073947651
  C           4.01339631274489      1.04647120071308     -0.48916402355445
  C          -1.30302960737525     -1.35034033625841      2.39954623835378
  C           3.43675358392607      1.61092778358256      0.63966527182200
  C          -4.19189837261876     -1.43468576475984     -0.98133203794248
  C           3.11717427248702     -0.48653447980725     -3.68370840328448
  C          -5.49249038218680     -1.65199557633092     -0.80361225371866
  C           2.72196605553953     -1.52878307046214     -4.40490068160187
  H          -0.85719337175157      0.44183686993315     -0.97381338833140
  H           1.54969529179086     -1.09168739007075     -1.33446946778217
  H           0.80369605690387     -1.08484469759991      2.66233820868161
  H          -4.14373871274281      0.47738247600839     -0.03257003043044
  H          -3.09583195496356      0.33752419968311     -1.42872900092063
  H           4.22407621181385     -1.61065335873061     -2.25272294037675
  H           4.92754339659174     -0.05443063078941     -2.65018464736987
  H           4.99994538731353      1.37304333025373     -0.79873289063539
  H          -1.44409742019434     -1.87118491751512      3.33800961780636
  H           3.95560500126610      2.37136747058083      1.21023212382668
  H          -3.59048167585080     -2.19502354467044     -1.47343463349980
  H           2.80470369960335      0.51227471375164     -3.97860234481036
  H           0.75033130190258      1.58254741493358      2.35012488536038
  H          -4.23870526003221     -1.67161491161094      1.31458917275411
  H          -5.96877563868926     -2.56073537669750     -1.14943593656950
  H          -6.13281865458653     -0.91473419143861     -0.32917011463603
  H           2.10502349791128     -1.40768374563358     -5.28660874517439
  H           3.00465385344185     -2.54258375971629     -4.14116674543788
  H          -4.99650109076298      1.10838583291340      3.37107572293883
  H          -3.62625151997428     -0.45321935661185      4.62131959117655
  O          -2.14869712106423      0.97474688014169      4.84516777002329
  C          -3.52397865405905      0.57938699234127      4.95363512468304
  C          -4.24119773623715      1.54745053390739      4.01848838649959
  C          -1.99457238764851      1.79238539652567      3.78994219330639
  O          -0.95823827929067      2.20717847888469      3.37974801983256
  O          -3.20959364619595      2.08206457204509      3.23410892175816
  F          -4.83742132115573      2.56566179678459      4.72828866596676
  H          -3.84957138773177      0.69547071263547      5.98475148514646
  H           1.22529561586686      5.88078860629697     -0.75688966604366
  H           2.05879160619719      4.31114472572475     -0.52010431173087
  C           1.09735622167457      4.80476541687673     -0.66263502986545
  F          -0.67899341153252      5.53744151422558      0.75392482666204
  C           0.10058611772067      4.44456917584106      0.43479452196843
  H           0.52673509049642      4.05140171587682      1.35420470217952
  O           0.48004813092356      4.29548308462324     -1.85405688288646
  O          -0.71165479773222      3.47110965930938     -0.16431507467522
  C          -0.54080125767564      3.48004579561999     -1.52217096931109
  O          -1.19540396160415      2.84393018504571     -2.28230436792477
*
