58
Coordinates from ORCA-job honokiol2-opt_FEC2 E -1730.246189271219
  O       1.662703      1.849068      2.154982
  O      -3.631510     -1.526749      2.056643
  C       1.481997      0.208941      0.355671
  C       0.138733     -0.264033      0.787836
  C      -2.255744     -0.486987      0.342378
  C      -0.977976     -0.078509     -0.031332
  C       3.346558      0.068770     -1.225783
  C       2.086477     -0.328031     -0.783137
  C       2.172127      1.207727      1.065178
  C      -0.045217     -0.909955      2.012757
  C      -2.403783     -1.131929      1.578930
  C      -3.449874     -0.198553     -0.544361
  C       3.977633     -0.562742     -2.453231
  C       4.013396      1.046471     -0.489164
  C      -1.303030     -1.350340      2.399546
  C       3.436754      1.610928      0.639665
  C      -4.191898     -1.434686     -0.981332
  C       3.117174     -0.486534     -3.683708
  C      -5.492490     -1.651996     -0.803612
  C       2.721966     -1.528783     -4.404901
  H      -0.857193      0.441837     -0.973813
  H       1.549695     -1.091687     -1.334469
  H       0.803696     -1.084845      2.662338
  H      -4.143739      0.477382     -0.032570
  H      -3.095832      0.337524     -1.428729
  H       4.224076     -1.610653     -2.252723
  H       4.927543     -0.054431     -2.650185
  H       4.999945      1.373043     -0.798733
  H      -1.444097     -1.871185      3.338010
  H       3.955605      2.371367      1.210232
  H      -3.590482     -2.195024     -1.473435
  H       2.804704      0.512275     -3.978602
  H       0.750331      1.582547      2.350125
  H      -4.238705     -1.671615      1.314589
  H      -5.968776     -2.560735     -1.149436
  H      -6.132819     -0.914734     -0.329170
  H       2.105023     -1.407684     -5.286609
  H       3.004654     -2.542584     -4.141167
  H      -4.996501      1.108386      3.371076
  H      -3.626252     -0.453219      4.621320
  O      -2.148697      0.974747      4.845168
  C      -3.523979      0.579387      4.953635
  C      -4.241198      1.547451      4.018488
  C      -1.994572      1.792385      3.789942
  O      -0.958238      2.207178      3.379748
  O      -3.209594      2.082065      3.234109
  F      -4.837421      2.565662      4.728289
  H      -3.849571      0.695471      5.984751
  H       1.225296      5.880789     -0.756890
  H       2.058792      4.311145     -0.520104
  C       1.097356      4.804765     -0.662635
  F      -0.678993      5.537442      0.753925
  C       0.100586      4.444569      0.434795
  H       0.526735      4.051402      1.354205
  O       0.480048      4.295483     -1.854057
  O      -0.711655      3.471110     -0.164315
  C      -0.540801      3.480046     -1.522171
  O      -1.195404      2.843930     -2.282304
58
Coordinates from ORCA-job honokiol2-opt_FEC2 E -1730.246199335082
  O       1.664129      1.850459      2.154380
  O      -3.631083     -1.526033      2.058536
  C       1.482548      0.209098      0.356873
  C       0.138922     -0.262681      0.789343
  C      -2.255443     -0.486441      0.344194
  C      -0.977903     -0.077457     -0.029527
  C       3.347167      0.067403     -1.224581
  C       2.086865     -0.328826     -0.781532
  C       2.172757      1.208392      1.065255
  C      -0.044978     -0.908527      2.014375
  C      -2.403534     -1.131376      1.580723
  C      -3.449862     -0.196293     -0.541812
  C       3.977805     -0.564734     -2.451891
  C       4.014173      1.045461     -0.488600
  C      -1.302547     -1.349370      2.401307
  C       3.437245      1.611022      0.639541
  C      -4.193859     -1.431311     -0.978497
  C       3.117850     -0.487063     -3.682630
  C      -5.494527     -1.646966     -0.799141
  C       2.721608     -1.528593     -4.404286
  H      -0.857579      0.442163     -0.972343
  H       1.549648     -1.092642     -1.332255
  H       0.804003     -1.082839      2.664047
  H      -4.142413      0.480320     -0.029255
  H      -3.095494      0.340000     -1.425959
  H       4.222677     -1.613043     -2.251523
  H       4.928413     -0.057564     -2.648400
  H       5.000698      1.371765     -0.798501
  H      -1.443403     -1.870281      3.339783
  H       3.955738      2.372207      1.209362
  H      -3.594050     -2.192215     -1.471678
  H       2.806639      0.512224     -3.977258
  H       0.751680      1.584312      2.350334
  H      -4.238301     -1.671788      1.316636
  H      -5.972440     -2.555022     -1.144532
  H      -6.133315     -0.908975     -0.323777
  H       2.105042     -1.406465     -5.286112
  H       3.003066     -2.542808     -4.140846
  H      -4.993315      1.098226      3.363195
  H      -3.621892     -0.458404      4.618181
  O      -2.147880      0.973415      4.842157
  C      -3.522666      0.574898      4.949035
  C      -4.240402      1.540078      4.011459
  C      -1.994189      1.790783      3.786712
  O      -0.958237      2.207560      3.377920
  O      -3.208736      2.077053      3.228785
  F      -4.840940      2.557461      4.719053
  H      -3.850106      0.691589      5.979474
  H       1.224330      5.882147     -0.759177
  H       2.057741      4.312344     -0.522018
  C       1.096350      4.806202     -0.664337
  F      -0.678972      5.539672      0.753645
  C       0.100039      4.446686      0.433906
  H       0.526441      4.053080      1.352972
  O       0.478636      4.296589     -1.855331
  O      -0.713005      3.473688     -0.164826
  C      -0.541856      3.481075     -1.522725
  O      -1.195722      2.843418     -2.282181
58
Coordinates from ORCA-job honokiol2-opt_FEC2 E -1730.246217444261
  O       1.667704      1.854366      2.152363
  O      -3.627685     -1.536824      2.058002
  C       1.483959      0.208555      0.359182
  C       0.139778     -0.261756      0.791653
  C      -2.254225     -0.488793      0.347519
  C      -0.977760     -0.076299     -0.025588
  C       3.349839      0.062327     -1.221018
  C       2.088685     -0.332099     -0.777598
  C       2.173802      1.209749      1.064932
  C      -0.042841     -0.912289      2.014595
  C      -2.401240     -1.139057      1.581254
  C      -3.450010     -0.191682     -0.535101
  C       3.980051     -0.572270     -2.447148
  C       4.016633      1.041871     -0.486951
  C      -1.298891     -1.358083      2.400303
  C       3.438226      1.610728      0.638804
  C      -4.200464     -1.422146     -0.973226
  C       3.123346     -0.488639     -3.679790
  C      -5.501134     -1.633280     -0.787986
  C       2.723701     -1.527220     -4.403799
  H      -0.859625      0.442466     -0.968954
  H       1.550853     -1.096861     -1.326488
  H       0.806799     -1.086650      2.663454
  H      -4.138022      0.486196     -0.018314
  H      -3.094558      0.346957     -1.417402
  H       4.218454     -1.622138     -2.247226
  H       4.933680     -0.069740     -2.640865
  H       5.003309      1.367251     -0.797290
  H      -1.438075     -1.883395      3.336604
  H       3.955164      2.374540      1.206384
  H      -3.606154     -2.183497     -1.472303
  H       2.817566      0.512569     -3.973625
  H       0.755204      1.590554      2.352763
  H      -4.235266     -1.682086      1.316133
  H      -5.984384     -2.538311     -1.133957
  H      -6.134710     -0.894325     -0.307234
  H       2.109617     -1.400906     -5.286761
  H       2.999830     -2.543124     -4.141244
  H      -4.985847      1.077019      3.348079
  H      -3.613354     -0.464593      4.619369
  O      -2.146220      0.975577      4.838381
  C      -3.520347      0.571292      4.943236
  C      -4.238738      1.527220      3.997170
  C      -1.993562      1.790529      3.780994
  O      -0.958388      2.212272      3.375711
  O      -3.206732      2.067784      3.217556
  F      -4.849672      2.544643      4.696619
  H      -3.851531      0.693093      5.971858
  H       1.219659      5.888491     -0.765465
  H       2.051924      4.317706     -0.527917
  C       1.090932      4.812799     -0.669148
  F      -0.680198      5.549644      0.753815
  C       0.095983      4.455790      0.431632
  H       0.523006      4.060289      1.349532
  O       0.471205      4.303022     -1.858706
  O      -0.720305      3.484601     -0.166021
  C      -0.547554      3.486484     -1.523888
  O      -1.197855      2.842746     -2.281229
58
Coordinates from ORCA-job honokiol2-opt_FEC2 E -1730.246224810200
  O       1.668626      1.856474      2.151561
  O      -3.627890     -1.531813      2.062608
  C       1.484100      0.208948      0.359621
  C       0.139874     -0.260910      0.792493
  C      -2.254565     -0.487094      0.350036
  C      -0.978196     -0.074708     -0.023779
  C       3.350232      0.060130     -1.220040
  C       2.089069     -0.333545     -0.776136
  C       2.174056      1.210831      1.064377
  C      -0.042514     -0.910413      2.016085
  C      -2.401433     -1.135981      1.584485
  C      -3.450337     -0.189056     -0.532532
  C       3.980313     -0.576505     -2.445163
  C       4.016879      1.041025     -0.487635
  C      -1.298649     -1.354752      2.403142
  C       3.438562      1.611285      0.637439
  C      -4.202155     -1.418320     -0.971449
  C       3.125137     -0.490908     -3.678776
  C      -5.502906     -1.628512     -0.785597
  C       2.723853     -1.528583     -4.403183
  H      -0.861275      0.443543     -0.967722
  H       1.551169     -1.099063     -1.323888
  H       0.807398     -1.084499      2.664674
  H      -4.137350      0.489679     -0.015439
  H      -3.093543      0.349642     -1.414180
  H       4.215670     -1.626939     -2.244750
  H       4.935437     -0.076452     -2.637916
  H       5.003601      1.365822     -0.798444
  H      -1.437650     -1.878915      3.340125
  H       3.955228      2.376166      1.203864
  H      -3.608935     -2.179687     -1.471794
  H       2.821994      0.510995     -3.972945
  H       0.756641      1.593328      2.353975
  H      -4.236612     -1.676202      1.321478
  H      -5.987194     -2.532723     -1.132273
  H      -6.135523     -0.889526     -0.303638
  H       2.110985     -1.400886     -5.286792
  H       2.997307     -2.545118     -4.140263
  H      -4.980371      1.062647      3.338582
  H      -3.606073     -0.471298      4.617489
  O      -2.143636      0.973728      4.834898
  C      -3.516807      0.565872      4.938335
  C      -4.236440      1.517071      3.988405
  C      -1.991741      1.787649      3.776575
  O      -0.957004      2.212732      3.373224
  O      -3.204639      2.059868      3.210196
  F      -4.852884      2.533735      4.684189
  H      -3.850041      0.689717      5.966068
  H       1.217582      5.891024     -0.765273
  H       2.049198      4.319756     -0.528504
  C       1.088404      4.815350     -0.669106
  F      -0.681342      5.552973      0.755485
  C       0.093501      4.458736      0.431938
  H       0.520527      4.061814      1.349267
  O       0.468215      4.305762     -1.858449
  O      -0.724172      3.488624     -0.165832
  C      -0.549872      3.488432     -1.523354
  O      -1.198249      2.842116     -2.280110
58
Coordinates from ORCA-job honokiol2-opt_FEC2 E -1730.246232474133
  O       1.668929      1.858097      2.150938
  O      -3.627397     -1.534820      2.062212
  C       1.483961      0.208696      0.359664
  C       0.139970     -0.261839      0.792506
  C      -2.254796     -0.487226      0.350953
  C      -0.978430     -0.074544     -0.023098
  C       3.350374      0.057830     -1.219360
  C       2.089377     -0.335321     -0.775170
  C       2.173776      1.211379      1.063688
  C      -0.042074     -0.911966      2.015836
  C      -2.401147     -1.137164      1.584767
  C      -3.450402     -0.188683     -0.531720
  C       3.980556     -0.580672     -2.443479
  C       4.016674      1.040105     -0.488485
  C      -1.298176     -1.356347      2.403027
  C       3.438433      1.611591      0.635913
  C      -4.202954     -1.416952     -0.971562
  C       3.127520     -0.492020     -3.678431
  C      -5.503726     -1.626796     -0.785621
  C       2.724350     -1.528197     -4.403944
  H      -0.862683      0.443766     -0.967324
  H       1.551706     -1.101645     -1.322001
  H       0.808137     -1.086959      2.663765
  H      -4.136738      0.490747     -0.014489
  H      -3.092064      0.350000     -1.412669
  H       4.212125     -1.631891     -2.242945
  H       4.937627     -0.083723     -2.634609
  H       5.003393      1.364565     -0.799670
  H      -1.436853     -1.881380      3.339574
  H       3.954802      2.377545      1.201210
  H      -3.610274     -2.178212     -1.472711
  H       2.827731      0.510891     -3.972567
  H       0.757600      1.595680      2.356444
  H      -4.236143     -1.677266      1.320802
  H      -5.988481     -2.530413     -1.133153
  H      -6.135938     -0.887986     -0.302830
  H       2.113184     -1.398332     -5.288418
  H       2.994400     -2.545646     -4.141031
  H      -4.976442      1.057673      3.334893
  H      -3.602590     -0.470892      4.620884
  O      -2.141423      0.975764      4.834467
  C      -3.514215      0.567486      4.938112
  C      -4.234105      1.514973      3.984521
  C      -1.989427      1.787792      3.774701
  O      -0.954693      2.214752      3.372683
  O      -3.202085      2.056982      3.206101
  F      -4.852860      2.532574      4.676710
  H      -3.848259      0.694876      5.965189
  H       1.215264      5.893437     -0.762599
  H       2.045540      4.321376     -0.527133
  C       1.085143      4.817785     -0.667234
  F      -0.683567      5.556418      0.757832
  C       0.089614      4.461463      0.433273
  H       0.516044      4.062840      1.350172
  O       0.464883      4.308946     -1.856865
  O      -0.729393      3.492659     -0.165188
  C      -0.552352      3.490281     -1.522108
  O      -1.197866      2.840992     -2.278772
58
Coordinates from ORCA-job honokiol2-opt_FEC2 E -1730.246238492927
  O       1.669029      1.858685      2.150709
  O      -3.627520     -1.535984      2.061634
  C       1.483787      0.208190      0.359727
  C       0.140059     -0.263167      0.792561
  C      -2.254799     -0.488006      0.350651
  C      -0.978170     -0.075607     -0.023361
  C       3.349859      0.056646     -1.219480
  C       2.089281     -0.336515     -0.774860
  C       2.173524      1.211401      1.063190
  C      -0.042069     -0.913117      2.015897
  C      -2.401056     -1.137919      1.584399
  C      -3.449874     -0.190319     -0.532935
  C       3.979917     -0.582641     -2.443266
  C       4.015969      1.039820     -0.489604
  C      -1.298429     -1.357133      2.402918
  C       3.438099      1.611891      0.634574
  C      -4.201931     -1.418670     -0.972905
  C       3.128068     -0.491528     -3.678895
  C      -5.502843     -1.628738     -0.788444
  C       2.723456     -1.526461     -4.405369
  H      -0.862774      0.442723     -0.967696
  H       1.551874     -1.103382     -1.321199
  H       0.808123     -1.088606      2.663719
  H      -4.136440      0.489720     -0.016741
  H      -3.090310      0.347454     -1.413923
  H       4.208986     -1.634441     -2.243027
  H       4.938304     -0.087860     -2.633342
  H       5.002500      1.364416     -0.801236
  H      -1.437318     -1.881966      3.339548
  H       3.954462      2.378438      1.199104
  H      -3.608609     -2.180119     -1.473036
  H       2.830482      0.512144     -3.972618
  H       0.758404      1.595972      2.358800
  H      -4.236344     -1.676454      1.319976
  H      -5.986998     -2.532526     -1.136335
  H      -6.135751     -0.889924     -0.306555
  H       2.113221     -1.394865     -5.290233
  H       2.991262     -2.544610     -4.142844
  H      -4.974057      1.060073      3.334226
  H      -3.602015     -0.467304      4.623823
  O      -2.139859      0.978561      4.835170
  C      -3.512620      0.571603      4.939162
  C      -4.231904      1.517927      3.983700
  C      -1.986812      1.789035      3.774440
  O      -0.951688      2.215995      3.373051
  O      -3.199196      2.057774      3.204531
  F      -4.850097      2.536841      4.674038
  H      -3.846959      0.701456      5.965866
  H       1.213908      5.893533     -0.757401
  H       2.042860      4.320757     -0.523164
  C       1.082871      4.817876     -0.663355
  F      -0.686290      5.556814      0.760268
  C       0.086010      4.461275      0.435671
  H       0.511249      4.061333      1.352541
  O       0.463487      4.310016     -1.854003
  O      -0.733319      3.493489     -0.164166
  C      -0.553227      3.490061     -1.520451
  O      -1.196210      2.839013     -2.277796
